<?xml version="1.0" encoding="UTF-8"?>

<!-- generated on 2024-04-20 17:44:47 by Eclipse SUMO netconvert Version 1.19.0
<configuration xmlns:xsi="http://www.w3.org/2001/XMLSchema-instance" xsi:noNamespaceSchemaLocation="http://sumo.dlr.de/xsd/netconvertConfiguration.xsd">

    <input>
        <opendrive-files value="Crossroads.xodr"/>
    </input>

    <output>
        <output-file value="Crossroads.net.xml"/>
    </output>

    <processing>
        <geometry.remove value="true"/>
        <roundabouts.guess value="true"/>
    </processing>

    <ramp_guessing>
        <ramps.guess value="true"/>
    </ramp_guessing>

    <junctions>
        <no-turnarounds.except-deadend value="true"/>
        <junctions.join value="true"/>
    </junctions>

</configuration>
-->

<net version="1.16" junctionCornerDetail="5" rectangularLaneCut="true" limitTurnSpeed="5.50" xmlns:xsi="http://www.w3.org/2001/XMLSchema-instance" xsi:noNamespaceSchemaLocation="http://sumo.dlr.de/xsd/net_file.xsd">

    <location netOffset="120.93,90.49" convBoundary="0.00,0.00,252.04,183.24" origBoundary="-120.93,-90.49,131.11,92.75" projParameter="!"/>


    <edge id=":1#1_0" function="internal">
        <lane id=":1#1_0_0" index="0" allow="emergency authority" speed="17.88" length="3.04" width="1.75" shape="116.16,106.60 116.26,105.70 116.47,105.10 116.69,104.49 116.79,103.60"/>
        <lane id=":1#1_0_1" index="1" disallow="pedestrian tram rail_urban rail rail_electric rail_fast ship" speed="17.88" length="3.04" width="3.50" shape="119.41,106.60 119.41,103.60"/>
    </edge>
    <edge id=":1#1_2" function="internal">
        <lane id=":1#1_2_0" index="0" disallow="pedestrian tram rail_urban rail rail_electric rail_fast ship" speed="17.88" length="3.00" width="3.00" shape="126.16,103.60 126.16,106.60"/>
        <lane id=":1#1_2_1" index="1" disallow="pedestrian tram rail_urban rail rail_electric rail_fast ship" speed="17.88" length="3.00" width="3.50" shape="122.91,103.60 122.91,106.60"/>
    </edge>
    <edge id=":2.end_0" function="internal">
        <lane id=":2.end_0_0" index="0" disallow="pedestrian tram rail_urban rail rail_electric rail_fast ship" speed="3.82" length="5.11" width="3.50" shape="0.01,92.32 -1.31,91.45 -1.75,90.58 -1.32,89.70 -0.01,88.82"/>
    </edge>
    <edge id=":3#1_0" function="internal">
        <lane id=":3#1_0_0" index="0" allow="emergency authority" speed="17.88" length="3.04" width="1.79" shape="146.60,95.49 145.70,95.40 145.10,95.19 144.50,94.98 143.60,94.89"/>
        <lane id=":3#1_0_1" index="1" disallow="pedestrian tram rail_urban rail rail_electric rail_fast ship" speed="17.88" length="3.04" width="3.50" shape="146.60,92.24 143.60,92.24"/>
    </edge>
    <edge id=":3#1_2" function="internal">
        <lane id=":3#1_2_0" index="0" disallow="pedestrian tram rail_urban rail rail_electric rail_fast ship" speed="17.88" length="3.00" width="3.00" shape="143.60,85.49 146.60,85.49"/>
        <lane id=":3#1_2_1" index="1" disallow="pedestrian tram rail_urban rail rail_electric rail_fast ship" speed="17.88" length="3.00" width="3.50" shape="143.60,88.74 146.60,88.74"/>
    </edge>
    <edge id=":4.2_0" function="internal">
        <lane id=":4.2_0_0" index="0" disallow="pedestrian tram rail_urban rail rail_electric rail_fast ship" speed="17.88" length="3.00" width="4.14" shape="46.98,95.97 43.98,96.06"/>
        <lane id=":4.2_0_1" index="1" disallow="pedestrian tram rail_urban rail rail_electric rail_fast ship" speed="17.88" length="3.00" width="3.50" shape="46.98,92.24 43.98,92.24"/>
    </edge>
    <edge id=":4.2_2" function="internal">
        <lane id=":4.2_2_0" index="0" disallow="pedestrian tram rail_urban rail rail_electric rail_fast ship" speed="17.88" length="3.00" width="3.00" shape="43.98,85.49 46.98,85.49"/>
        <lane id=":4.2_2_1" index="1" disallow="pedestrian tram rail_urban rail rail_electric rail_fast ship" speed="17.88" length="3.00" width="3.50" shape="43.98,88.74 46.98,88.74"/>
    </edge>
    <edge id=":5.end_0" function="internal">
        <lane id=":5.end_0_0" index="0" disallow="pedestrian tram rail_urban rail rail_electric rail_fast ship" speed="3.82" length="5.11" width="3.50" shape="252.04,88.70 253.35,89.57 253.79,90.45 253.35,91.32 252.04,92.20"/>
    </edge>
    <edge id=":6.end_0" function="internal">
        <lane id=":6.end_0_0" index="0" disallow="pedestrian tram rail_urban rail rail_electric rail_fast ship" speed="3.82" length="5.11" width="3.50" shape="122.93,183.24 122.06,184.55 121.18,184.99 120.31,184.55 119.43,183.24"/>
    </edge>
    <edge id=":7.end_0" function="internal">
        <lane id=":7.end_0_0" index="0" disallow="pedestrian tram rail_urban rail rail_electric rail_fast ship" speed="3.82" length="5.11" width="3.50" shape="119.40,0.00 120.27,-1.31 121.15,-1.75 122.02,-1.31 122.90,-0.00"/>
    </edge>
    <edge id=":8_0" function="internal">
        <lane id=":8_0_0" index="0" disallow="pedestrian tram rail_urban rail rail_electric rail_fast ship" speed="8.48" length="15.97" width="3.50" shape="119.41,101.96 118.78,97.71 116.89,94.67 113.74,92.85 109.32,92.24"/>
    </edge>
    <edge id=":8_1" function="internal">
        <lane id=":8_1_0" index="0" disallow="pedestrian tram rail_urban rail rail_electric rail_fast ship" speed="17.88" length="22.97" width="3.50" shape="119.41,101.96 119.41,78.99"/>
    </edge>
    <edge id=":8_2" function="internal">
        <lane id=":8_2_0" index="0" disallow="pedestrian tram rail_urban rail rail_electric rail_fast ship" speed="9.55" length="20.54" width="3.50" shape="119.41,101.96 120.18,96.17 122.47,92.04 126.30,89.57 131.66,88.74"/>
    </edge>
    <edge id=":8_3" function="internal">
        <lane id=":8_3_0" index="0" disallow="pedestrian tram rail_urban rail rail_electric rail_fast ship" speed="8.21" length="14.90" width="3.50" shape="131.66,92.24 127.83,92.85 125.10,94.67 123.46,97.71 122.91,101.96"/>
    </edge>
    <edge id=":8_4" function="internal">
        <lane id=":8_4_0" index="0" disallow="pedestrian tram rail_urban rail rail_electric rail_fast ship" speed="17.88" length="22.34" width="3.50" shape="131.66,92.24 109.32,92.24"/>
    </edge>
    <edge id=":8_5" function="internal">
        <lane id=":8_5_0" index="0" disallow="pedestrian tram rail_urban rail rail_electric rail_fast ship" speed="9.55" length="5.42" width="3.50" shape="131.66,92.24 126.30,91.41"/>
    </edge>
    <edge id=":8_12" function="internal">
        <lane id=":8_12_0" index="0" disallow="pedestrian tram rail_urban rail rail_electric rail_fast ship" speed="9.55" length="15.15" width="3.50" shape="126.30,91.41 122.47,88.93 120.18,84.79 119.41,78.99"/>
    </edge>
    <edge id=":8_6" function="internal">
        <lane id=":8_6_0" index="0" disallow="pedestrian tram rail_urban rail rail_electric rail_fast ship" speed="8.22" length="14.93" width="3.50" shape="122.91,78.99 123.46,83.26 125.10,86.30 127.83,88.13 131.66,88.74"/>
    </edge>
    <edge id=":8_7" function="internal">
        <lane id=":8_7_0" index="0" disallow="pedestrian tram rail_urban rail rail_electric rail_fast ship" speed="17.88" length="22.97" width="3.50" shape="122.91,78.99 122.91,101.96"/>
    </edge>
    <edge id=":8_8" function="internal">
        <lane id=":8_8_0" index="0" disallow="pedestrian tram rail_urban rail rail_electric rail_fast ship" speed="9.78" length="21.64" width="3.50" shape="122.91,78.99 122.06,84.79 119.51,88.93 115.27,91.41 109.32,92.24"/>
    </edge>
    <edge id=":8_9" function="internal">
        <lane id=":8_9_0" index="0" disallow="pedestrian tram rail_urban rail rail_electric rail_fast ship" speed="8.49" length="16.00" width="3.50" shape="109.32,88.74 113.74,88.13 116.89,86.30 118.78,83.26 119.41,78.99"/>
    </edge>
    <edge id=":8_10" function="internal">
        <lane id=":8_10_0" index="0" disallow="pedestrian tram rail_urban rail rail_electric rail_fast ship" speed="17.88" length="22.34" width="3.50" shape="109.32,88.74 131.66,88.74"/>
    </edge>
    <edge id=":8_11" function="internal">
        <lane id=":8_11_0" index="0" disallow="pedestrian tram rail_urban rail rail_electric rail_fast ship" speed="9.78" length="6.00" width="3.50" shape="109.32,88.74 115.27,89.57"/>
    </edge>
    <edge id=":8_13" function="internal">
        <lane id=":8_13_0" index="0" disallow="pedestrian tram rail_urban rail rail_electric rail_fast ship" speed="9.78" length="15.61" width="3.50" shape="115.27,89.57 119.51,92.04 122.06,96.17 122.91,101.96"/>
    </edge>

    <edge id="-1#0" from="8" to="1#1" priority="1" type="parking|driving" shape="121.16,100.18 121.16,105.10">
        <lane id="-1#0_0" index="0" disallow="pedestrian tram rail_urban rail rail_electric rail_fast ship" speed="17.88" length="1.64" width="3.00" shape="126.16,101.96 126.16,103.60" type="parking"/>
        <lane id="-1#0_1" index="1" disallow="pedestrian tram rail_urban rail rail_electric rail_fast ship" speed="17.88" length="1.64" width="3.50" shape="122.91,101.96 122.91,103.60" type="driving"/>
    </edge>
    <edge id="-1#1" from="1#1" to="6.end" priority="1" type="parking|driving" shape="121.16,105.10 121.16,138.97 121.16,159.67 121.16,159.77 121.16,160.09 121.16,160.19 121.18,183.24">
        <lane id="-1#1_0" index="0" disallow="pedestrian tram rail_urban rail rail_electric rail_fast ship" speed="17.88" length="76.64" width="3.00" shape="126.16,106.60 126.16,138.97 126.16,159.67 126.16,159.77 126.16,160.09 126.16,160.19 126.18,183.24" type="parking"/>
        <lane id="-1#1_1" index="1" disallow="pedestrian tram rail_urban rail rail_electric rail_fast ship" speed="17.88" length="76.64" width="3.50" shape="122.91,106.60 122.91,138.97 122.91,159.67 122.91,159.77 122.91,160.09 122.91,160.19 122.93,183.24" type="driving"/>
    </edge>
    <edge id="-2" from="4.2" to="2.end" priority="1" type="parking|driving" shape="45.48,90.49 25.81,90.49 25.41,90.49 24.20,90.49 23.80,90.49 0.00,90.57">
        <lane id="-2_0" index="0" disallow="pedestrian tram rail_urban rail rail_electric rail_fast ship" speed="17.88" length="43.97" width="4.14" shape="43.98,96.06 25.81,96.06 25.42,96.06 24.21,96.06 23.81,96.06 0.02,96.14" type="parking"/>
        <lane id="-2_1" index="1" disallow="pedestrian tram rail_urban rail rail_electric rail_fast ship" speed="17.88" length="43.97" width="3.50" shape="43.98,92.24 25.81,92.24 25.41,92.24 24.20,92.24 23.80,92.24 0.01,92.32" type="driving"/>
    </edge>
    <edge id="-3#1" from="3#1" to="8" priority="1" type="parking|driving" shape="145.10,90.49 131.50,90.49">
        <lane id="-3#1_0" index="0" allow="emergency authority" speed="17.88" length="11.94" width="1.79" shape="143.60,94.89 131.66,94.89" type="parking"/>
        <lane id="-3#1_1" index="1" disallow="pedestrian tram rail_urban rail rail_electric rail_fast ship" speed="17.88" length="11.94" width="3.50" shape="143.60,92.24 131.66,92.24" type="driving"/>
    </edge>
    <edge id="-4" from="8" to="4.2" priority="1" type="parking|driving" shape="109.32,90.49 45.48,90.49">
        <lane id="-4_0" index="0" disallow="pedestrian tram rail_urban rail rail_electric rail_fast ship" speed="17.88" length="62.34" width="3.97" shape="109.32,95.97 46.98,95.97" type="parking"/>
        <lane id="-4_1" index="1" disallow="pedestrian tram rail_urban rail rail_electric rail_fast ship" speed="17.88" length="62.34" width="3.50" shape="109.32,92.24 46.98,92.24" type="driving"/>
    </edge>
    <edge id="0" from="8" to="7.end" priority="1" type="parking|driving" shape="121.16,78.99 121.16,40.28 121.16,20.39 121.16,20.13 121.15,0.00">
        <lane id="0_0" index="0" disallow="pedestrian tram rail_urban rail rail_electric rail_fast ship" speed="17.88" length="78.99" width="3.00" shape="116.16,78.99 116.16,40.28 116.16,20.39 116.16,20.13 116.15,0.00" type="parking"/>
        <lane id="0_1" index="1" disallow="pedestrian tram rail_urban rail rail_electric rail_fast ship" speed="17.88" length="78.99" width="3.50" shape="119.41,78.99 119.41,40.28 119.41,20.39 119.41,20.13 119.40,0.00" type="driving"/>
    </edge>
    <edge id="1#0" from="1#1" to="8" priority="1" type="parking|driving" shape="121.16,105.10 121.16,100.18">
        <lane id="1#0_0" index="0" allow="emergency authority" speed="17.88" length="1.64" width="1.75" shape="116.79,103.60 116.79,101.96" type="parking"/>
        <lane id="1#0_1" index="1" disallow="pedestrian tram rail_urban rail rail_electric rail_fast ship" speed="17.88" length="1.64" width="3.50" shape="119.41,103.60 119.41,101.96" type="driving"/>
    </edge>
    <edge id="2" from="2.end" to="4.2" priority="1" type="parking|driving" shape="0.00,90.57 23.80,90.49 24.20,90.49 25.41,90.49 25.81,90.49 45.48,90.49">
        <lane id="2_0" index="0" disallow="pedestrian tram rail_urban rail rail_electric rail_fast ship" speed="17.88" length="43.99" width="3.00" shape="-0.02,85.57 23.78,85.49 24.19,85.49 25.40,85.49 25.81,85.49 43.98,85.49" type="parking"/>
        <lane id="2_1" index="1" disallow="pedestrian tram rail_urban rail rail_electric rail_fast ship" speed="17.88" length="43.99" width="3.50" shape="-0.01,88.82 23.79,88.74 24.20,88.74 25.41,88.74 25.81,88.74 43.98,88.74" type="driving"/>
    </edge>
    <edge id="3#0" from="3#1" to="5.end" priority="1" type="parking|driving" shape="145.10,90.49 216.41,90.49 232.98,90.49 233.25,90.49 234.07,90.49 234.34,90.49 252.04,90.45">
        <lane id="3#0_0" index="0" disallow="pedestrian tram rail_urban rail rail_electric rail_fast ship" speed="17.88" length="105.43" width="3.00" shape="146.60,85.49 216.41,85.49 232.98,85.49 233.25,85.49 234.06,85.49 234.33,85.49 252.03,85.45" type="parking"/>
        <lane id="3#0_1" index="1" disallow="pedestrian tram rail_urban rail rail_electric rail_fast ship" speed="17.88" length="105.43" width="3.50" shape="146.60,88.74 216.41,88.74 232.98,88.74 233.25,88.74 234.07,88.74 234.34,88.74 252.04,88.70" type="driving"/>
    </edge>
    <edge id="3#1" from="8" to="3#1" priority="1" type="parking|driving" shape="131.50,90.49 145.10,90.49">
        <lane id="3#1_0" index="0" disallow="pedestrian tram rail_urban rail rail_electric rail_fast ship" speed="17.88" length="11.94" width="3.00" shape="131.66,85.49 143.60,85.49" type="parking"/>
        <lane id="3#1_1" index="1" disallow="pedestrian tram rail_urban rail rail_electric rail_fast ship" speed="17.88" length="11.94" width="3.50" shape="131.66,88.74 143.60,88.74" type="driving"/>
    </edge>
    <edge id="4" from="4.2" to="8" priority="1" type="parking|driving" shape="45.48,90.49 109.32,90.49">
        <lane id="4_0" index="0" disallow="pedestrian tram rail_urban rail rail_electric rail_fast ship" speed="17.88" length="62.34" width="3.00" shape="46.98,85.49 109.32,85.49" type="parking"/>
        <lane id="4_1" index="1" disallow="pedestrian tram rail_urban rail rail_electric rail_fast ship" speed="17.88" length="62.34" width="3.50" shape="46.98,88.74 109.32,88.74" type="driving"/>
    </edge>
    <edge id="5" from="5.end" to="3#1" priority="1" type="parking|driving" shape="252.04,90.45 234.34,90.49 234.07,90.49 233.25,90.49 232.98,90.49 216.41,90.49 145.10,90.49">
        <lane id="5_0" index="0" disallow="pedestrian tram rail_urban rail rail_electric rail_fast ship" speed="17.88" length="105.44" width="3.00" shape="252.05,95.45 234.35,95.49 234.08,95.49 233.26,95.49 232.98,95.49 216.41,95.49 146.60,95.49" type="parking"/>
        <lane id="5_1" index="1" disallow="pedestrian tram rail_urban rail rail_electric rail_fast ship" speed="17.88" length="105.44" width="3.50" shape="252.04,92.20 234.35,92.24 234.07,92.24 233.26,92.24 232.98,92.24 216.41,92.24 146.60,92.24" type="driving"/>
    </edge>
    <edge id="6" from="6.end" to="1#1" priority="1" type="parking|driving" shape="121.18,183.24 121.16,160.19 121.16,160.09 121.16,159.77 121.16,159.67 121.16,138.97 121.16,105.10">
        <lane id="6_0" index="0" disallow="pedestrian tram rail_urban rail rail_electric rail_fast ship" speed="17.88" length="76.65" width="3.00" shape="116.18,183.24 116.16,160.20 116.16,160.09 116.16,159.78 116.16,159.67 116.16,138.97 116.16,106.60" type="parking"/>
        <lane id="6_1" index="1" disallow="pedestrian tram rail_urban rail rail_electric rail_fast ship" speed="17.88" length="76.65" width="3.50" shape="119.43,183.24 119.41,160.19 119.41,160.09 119.41,159.78 119.41,159.67 119.41,138.97 119.41,106.60" type="driving"/>
    </edge>
    <edge id="7" from="7.end" to="8" priority="1" type="parking|driving" shape="121.15,0.00 121.16,20.13 121.16,20.39 121.16,40.28 121.16,78.99">
        <lane id="7_0" index="0" disallow="pedestrian tram rail_urban rail rail_electric rail_fast ship" speed="17.88" length="78.99" width="3.00" shape="126.15,-0.00 126.16,20.13 126.16,20.39 126.16,40.28 126.16,78.99" type="parking"/>
        <lane id="7_1" index="1" disallow="pedestrian tram rail_urban rail rail_electric rail_fast ship" speed="17.88" length="78.99" width="3.50" shape="122.90,-0.00 122.91,20.13 122.91,20.39 122.91,40.28 122.91,78.99" type="driving"/>
    </edge>

    <junction id="1#1" type="priority" x="121.16" y="105.10" incLanes="6_0 6_1 -1#0_0 -1#0_1" intLanes=":1#1_0_0 :1#1_0_1 :1#1_2_0 :1#1_2_1" shape="114.66,106.60 127.66,106.60 127.66,103.60 115.91,103.60 115.59,104.73 114.98,105.46 114.75,105.92">
        <request index="0" response="0000" foes="0000" cont="0"/>
        <request index="1" response="0000" foes="0000" cont="0"/>
        <request index="2" response="0000" foes="0000" cont="0"/>
        <request index="3" response="0000" foes="0000" cont="0"/>
    </junction>
    <junction id="2.end" type="priority" x="0.00" y="90.57" incLanes="-2_0 -2_1" intLanes=":2.end_0_0" shape="0.00,90.57 0.02,98.21 -0.00,90.57">
        <request index="0" response="0" foes="0" cont="0"/>
    </junction>
    <junction id="3#1" type="priority" x="145.10" y="90.49" incLanes="5_0 5_1 3#1_0 3#1_1" intLanes=":3#1_0_0 :3#1_0_1 :3#1_2_0 :3#1_2_1" shape="146.60,96.99 146.60,83.99 143.60,83.99 143.60,95.78 144.74,96.10 145.47,96.68 145.93,96.90">
        <request index="0" response="0000" foes="0000" cont="0"/>
        <request index="1" response="0000" foes="0000" cont="0"/>
        <request index="2" response="0000" foes="0000" cont="0"/>
        <request index="3" response="0000" foes="0000" cont="0"/>
    </junction>
    <junction id="4.2" type="priority" x="45.48" y="90.49" incLanes="-4_0 -4_1 2_0 2_1" intLanes=":4.2_0_0 :4.2_0_1 :4.2_2_0 :4.2_2_1" shape="46.98,97.96 46.98,83.99 43.98,83.99 43.98,98.13">
        <request index="0" response="0000" foes="0000" cont="0"/>
        <request index="1" response="0000" foes="0000" cont="0"/>
        <request index="2" response="0000" foes="0000" cont="0"/>
        <request index="3" response="0000" foes="0000" cont="0"/>
    </junction>
    <junction id="5.end" type="priority" x="252.04" y="90.45" incLanes="3#0_0 3#0_1" intLanes=":5.end_0_0" shape="252.04,90.45 252.03,83.95 252.04,90.45">
        <request index="0" response="0" foes="0" cont="0"/>
    </junction>
    <junction id="6.end" type="priority" x="121.18" y="183.24" incLanes="-1#1_0 -1#1_1" intLanes=":6.end_0_0" shape="121.18,183.24 127.68,183.23 121.18,183.24">
        <request index="0" response="0" foes="0" cont="0"/>
    </junction>
    <junction id="7.end" type="priority" x="121.15" y="0.00" incLanes="0_0 0_1" intLanes=":7.end_0_0" shape="121.15,-0.00 114.65,0.00 121.15,0.00">
        <request index="0" response="0" foes="0" cont="0"/>
    </junction>
    <junction id="8" type="priority" x="120.41" y="89.59" incLanes="1#0_0 1#0_1 -3#1_0 -3#1_1 7_0 7_1 4_0 4_1" intLanes=":8_0_0 :8_1_0 :8_2_0 :8_3_0 :8_4_0 :8_12_0 :8_6_0 :8_7_0 :8_8_0 :8_9_0 :8_10_0 :8_13_0" shape="115.91,101.96 127.66,101.96 128.10,98.53 128.66,97.33 129.44,96.47 130.44,95.95 131.66,95.78 131.66,83.99 129.44,83.43 128.66,82.74 128.10,81.77 127.77,80.52 127.66,78.99 114.66,78.99 114.07,81.77 113.33,82.74 112.29,83.43 110.95,83.85 109.32,83.99 109.32,97.96 111.34,98.07 112.98,98.40 114.26,98.96 115.18,99.73 115.73,100.73">
        <request index="0"  response="000000010000" foes="000100010000" cont="0"/>
        <request index="1"  response="111000110000" foes="111100110000" cont="0"/>
        <request index="2"  response="110011110000" foes="110011110000" cont="0"/>
        <request index="3"  response="000000000000" foes="100010000000" cont="0"/>
        <request index="4"  response="000000000000" foes="100110000111" cont="0"/>
        <request index="5"  response="011000000000" foes="011110000110" cont="1"/>
        <request index="6"  response="010000000000" foes="010000000100" cont="0"/>
        <request index="7"  response="110000111000" foes="110000111100" cont="0"/>
        <request index="8"  response="110000110011" foes="110000110011" cont="0"/>
        <request index="9"  response="000000000000" foes="000000100010" cont="0"/>
        <request index="10" response="000000000000" foes="000111100110" cont="0"/>
        <request index="11" response="000000011000" foes="000110011110" cont="1"/>
    </junction>

    <junction id=":8_12_0" type="internal" x="126.30" y="91.41" incLanes=":8_5_0 4_1" intLanes=":8_1_0 :8_2_0 :8_7_0 :8_8_0 :8_9_0 :8_10_0"/>
    <junction id=":8_13_0" type="internal" x="115.27" y="89.57" incLanes=":8_11_0 -3#1_1" intLanes=":8_1_0 :8_2_0 :8_3_0 :8_4_0 :8_7_0 :8_8_0"/>

    <connection from="-1#0" to="-1#1" fromLane="0" toLane="0" via=":1#1_2_0" dir="s" state="M"/>
    <connection from="-1#0" to="-1#1" fromLane="1" toLane="1" via=":1#1_2_1" dir="s" state="M"/>
    <connection from="-1#1" to="6" fromLane="1" toLane="1" via=":6.end_0_0" dir="t" state="M"/>
    <connection from="-2" to="2" fromLane="1" toLane="1" via=":2.end_0_0" dir="t" state="M"/>
    <connection from="-3#1" to="-1#0" fromLane="1" toLane="1" via=":8_3_0" dir="r" state="M"/>
    <connection from="-3#1" to="-4" fromLane="1" toLane="1" via=":8_4_0" dir="s" state="M"/>
    <connection from="-3#1" to="0" fromLane="1" toLane="1" via=":8_5_0" dir="l" state="m"/>
    <connection from="-4" to="-2" fromLane="0" toLane="0" via=":4.2_0_0" dir="s" state="M"/>
    <connection from="-4" to="-2" fromLane="1" toLane="1" via=":4.2_0_1" dir="s" state="M"/>
    <connection from="0" to="7" fromLane="1" toLane="1" via=":7.end_0_0" dir="t" state="M"/>
    <connection from="1#0" to="-4" fromLane="1" toLane="1" via=":8_0_0" dir="r" state="m"/>
    <connection from="1#0" to="0" fromLane="1" toLane="1" via=":8_1_0" dir="s" state="m"/>
    <connection from="1#0" to="3#1" fromLane="1" toLane="1" via=":8_2_0" dir="l" state="m"/>
    <connection from="2" to="4" fromLane="0" toLane="0" via=":4.2_2_0" dir="s" state="M"/>
    <connection from="2" to="4" fromLane="1" toLane="1" via=":4.2_2_1" dir="s" state="M"/>
    <connection from="3#0" to="5" fromLane="1" toLane="1" via=":5.end_0_0" dir="t" state="M"/>
    <connection from="3#1" to="3#0" fromLane="0" toLane="0" via=":3#1_2_0" dir="s" state="M"/>
    <connection from="3#1" to="3#0" fromLane="1" toLane="1" via=":3#1_2_1" dir="s" state="M"/>
    <connection from="4" to="0" fromLane="1" toLane="1" via=":8_9_0" dir="r" state="M"/>
    <connection from="4" to="3#1" fromLane="1" toLane="1" via=":8_10_0" dir="s" state="M"/>
    <connection from="4" to="-1#0" fromLane="1" toLane="1" via=":8_11_0" dir="l" state="m"/>
    <connection from="5" to="-3#1" fromLane="0" toLane="0" via=":3#1_0_0" dir="s" state="M"/>
    <connection from="5" to="-3#1" fromLane="1" toLane="1" via=":3#1_0_1" dir="s" state="M"/>
    <connection from="6" to="1#0" fromLane="0" toLane="0" via=":1#1_0_0" dir="s" state="M"/>
    <connection from="6" to="1#0" fromLane="1" toLane="1" via=":1#1_0_1" dir="s" state="M"/>
    <connection from="7" to="3#1" fromLane="1" toLane="1" via=":8_6_0" dir="r" state="m"/>
    <connection from="7" to="-1#0" fromLane="1" toLane="1" via=":8_7_0" dir="s" state="m"/>
    <connection from="7" to="-4" fromLane="1" toLane="1" via=":8_8_0" dir="l" state="m"/>

    <connection from=":1#1_0" to="1#0" fromLane="0" toLane="0" dir="s" state="M"/>
    <connection from=":1#1_0" to="1#0" fromLane="1" toLane="1" dir="s" state="M"/>
    <connection from=":1#1_2" to="-1#1" fromLane="0" toLane="0" dir="s" state="M"/>
    <connection from=":1#1_2" to="-1#1" fromLane="1" toLane="1" dir="s" state="M"/>
    <connection from=":2.end_0" to="2" fromLane="0" toLane="1" dir="t" state="M"/>
    <connection from=":3#1_0" to="-3#1" fromLane="0" toLane="0" dir="s" state="M"/>
    <connection from=":3#1_0" to="-3#1" fromLane="1" toLane="1" dir="s" state="M"/>
    <connection from=":3#1_2" to="3#0" fromLane="0" toLane="0" dir="s" state="M"/>
    <connection from=":3#1_2" to="3#0" fromLane="1" toLane="1" dir="s" state="M"/>
    <connection from=":4.2_0" to="-2" fromLane="0" toLane="0" dir="s" state="M"/>
    <connection from=":4.2_0" to="-2" fromLane="1" toLane="1" dir="s" state="M"/>
    <connection from=":4.2_2" to="4" fromLane="0" toLane="0" dir="s" state="M"/>
    <connection from=":4.2_2" to="4" fromLane="1" toLane="1" dir="s" state="M"/>
    <connection from=":5.end_0" to="5" fromLane="0" toLane="1" dir="t" state="M"/>
    <connection from=":6.end_0" to="6" fromLane="0" toLane="1" dir="t" state="M"/>
    <connection from=":7.end_0" to="7" fromLane="0" toLane="1" dir="t" state="M"/>
    <connection from=":8_0" to="-4" fromLane="0" toLane="1" dir="r" state="M"/>
    <connection from=":8_1" to="0" fromLane="0" toLane="1" dir="s" state="M"/>
    <connection from=":8_2" to="3#1" fromLane="0" toLane="1" dir="l" state="M"/>
    <connection from=":8_3" to="-1#0" fromLane="0" toLane="1" dir="r" state="M"/>
    <connection from=":8_4" to="-4" fromLane="0" toLane="1" dir="s" state="M"/>
    <connection from=":8_5" to="0" fromLane="0" toLane="1" via=":8_12_0" dir="l" state="m"/>
    <connection from=":8_12" to="0" fromLane="0" toLane="1" dir="l" state="M"/>
    <connection from=":8_6" to="3#1" fromLane="0" toLane="1" dir="r" state="M"/>
    <connection from=":8_7" to="-1#0" fromLane="0" toLane="1" dir="s" state="M"/>
    <connection from=":8_8" to="-4" fromLane="0" toLane="1" dir="l" state="M"/>
    <connection from=":8_9" to="0" fromLane="0" toLane="1" dir="r" state="M"/>
    <connection from=":8_10" to="3#1" fromLane="0" toLane="1" dir="s" state="M"/>
    <connection from=":8_11" to="-1#0" fromLane="0" toLane="1" via=":8_13_0" dir="l" state="m"/>
    <connection from=":8_13" to="-1#0" fromLane="0" toLane="1" dir="l" state="M"/>

</net>
