<?xml version="1.0" encoding="UTF-8"?>

<!-- generated on 2024-04-20 22:48:10 by Eclipse SUMO netedit Version 1.19.0
<configuration xmlns:xsi="http://www.w3.org/2001/XMLSchema-instance" xsi:noNamespaceSchemaLocation="http://sumo.dlr.de/xsd/neteditConfiguration.xsd">

    <input>
        <sumo-net-file value="D:\Robot_Learning\M_Cricle\M_Circle.net.xml"/>
    </input>

    <output>
        <output-file value="D:\Robot_Learning\M_Cricle\M_Circle.net.xml"/>
    </output>

    <processing>
        <geometry.min-radius.fix.railways value="false"/>
        <geometry.max-grade.fix value="false"/>
        <offset.disable-normalization value="true"/>
        <lefthand value="0"/>
    </processing>

    <junctions>
        <no-turnarounds value="true"/>
        <junctions.corner-detail value="5"/>
        <junctions.limit-turn-speed value="5.50"/>
        <rectangular-lane-cut value="0"/>
    </junctions>

    <pedestrian>
        <walkingareas value="0"/>
    </pedestrian>

</configuration>
-->

<net version="1.16" junctionCornerDetail="5" limitTurnSpeed="5.50" xmlns:xsi="http://www.w3.org/2001/XMLSchema-instance" xsi:noNamespaceSchemaLocation="http://sumo.dlr.de/xsd/net_file.xsd">

    <location netOffset="-331574.14,-4316848.54" convBoundary="106.11,0.00,627.18,504.68" origBoundary="-76.963957,38.967800,-76.921804,38.989292" projParameter="+proj=utm +zone=18 +ellps=WGS84 +datum=WGS84 +units=m +no_defs"/>

    <type id="highway.footway" priority="1" numLanes="1" speed="2.78" allow="pedestrian" oneway="1" width="2.00"/>
    <type id="highway.path" priority="1" numLanes="1" speed="5.56" allow="pedestrian bicycle" oneway="0" width="2.00"/>
    <type id="highway.residential" priority="3" numLanes="1" speed="13.89" disallow="tram rail_urban rail rail_electric rail_fast ship" oneway="0"/>
    <type id="highway.service" priority="1" numLanes="1" speed="5.56" allow="pedestrian delivery bicycle" oneway="0"/>
    <type id="highway.steps" priority="1" numLanes="1" speed="1.39" allow="pedestrian" oneway="1" width="2.00"/>
    <type id="highway.tertiary" priority="10" numLanes="1" speed="22.22" disallow="tram rail_urban rail rail_electric rail_fast ship" oneway="0"/>

    <edge id=":1008887783_0" function="internal">
        <lane id=":1008887783_0_0" index="0" disallow="tram rail_urban rail rail_electric rail_fast ship" speed="3.65" length="4.67" shape="627.64,415.73 628.56,416.84 628.71,417.72 628.10,418.37 626.72,418.79"/>
    </edge>
    <edge id=":11300117919_0" function="internal">
        <lane id=":11300117919_0_0" index="0" disallow="tram rail_urban rail rail_electric rail_fast ship" speed="8.74" length="12.88" shape="369.84,342.66 366.43,342.53 363.50,343.36 361.05,345.16 359.08,347.91"/>
    </edge>
    <edge id=":11300117919_1" function="internal">
        <lane id=":11300117919_1_0" index="0" disallow="tram rail_urban rail rail_electric rail_fast ship" speed="8.94" length="17.02" shape="369.84,342.66 353.03,340.02"/>
    </edge>
    <edge id=":11300117919_2" function="internal">
        <lane id=":11300117919_2_0" index="0" disallow="tram rail_urban rail rail_electric rail_fast ship" speed="7.52" length="15.72" shape="369.84,342.66 365.50,341.29 363.15,338.97 362.80,335.68 364.45,331.43"/>
    </edge>
    <edge id=":11300117919_3" function="internal">
        <lane id=":11300117919_3_0" index="0" disallow="tram rail_urban rail rail_electric rail_fast ship" speed="3.65" length="1.44" shape="369.84,342.66 368.79,341.67"/>
    </edge>
    <edge id=":11300117919_12" function="internal">
        <lane id=":11300117919_12_0" index="0" disallow="tram rail_urban rail rail_electric rail_fast ship" speed="3.65" length="3.23" shape="368.79,341.67 368.53,340.82 369.05,340.09 370.37,339.50"/>
    </edge>
    <edge id=":11300117919_4" function="internal">
        <lane id=":11300117919_4_0" index="0" disallow="tram rail_urban rail rail_electric rail_fast ship" speed="5.89" length="9.11" shape="367.24,333.00 366.29,335.46 366.49,337.36 367.85,338.71 370.37,339.50"/>
    </edge>
    <edge id=":11300117919_5" function="internal">
        <lane id=":11300117919_5_0" index="0" disallow="tram rail_urban rail rail_electric rail_fast ship" speed="8.94" length="17.00" shape="367.24,333.00 359.08,347.91"/>
    </edge>
    <edge id=":11300117919_6" function="internal">
        <lane id=":11300117919_6_0" index="0" disallow="tram rail_urban rail rail_electric rail_fast ship" speed="8.94" length="2.65" shape="367.24,333.00 365.66,335.12"/>
    </edge>
    <edge id=":11300117919_7" function="internal">
        <lane id=":11300117919_7_0" index="0" disallow="tram rail_urban rail rail_electric rail_fast ship" speed="3.65" length="1.30" shape="367.24,333.00 366.08,333.59"/>
    </edge>
    <edge id=":11300117919_13" function="internal">
        <lane id=":11300117919_13_0" index="0" disallow="tram rail_urban rail rail_electric rail_fast ship" speed="8.94" length="14.28" shape="365.66,335.12 364.62,336.54 361.37,338.89 357.51,340.05 353.03,340.02"/>
    </edge>
    <edge id=":11300117919_14" function="internal">
        <lane id=":11300117919_14_0" index="0" disallow="tram rail_urban rail rail_electric rail_fast ship" speed="3.65" length="3.37" shape="366.08,333.59 365.96,333.65 365.06,333.61 364.56,332.87 364.45,331.43"/>
    </edge>
    <edge id=":11300117919_8" function="internal">
        <lane id=":11300117919_8_0" index="0" disallow="tram rail_urban rail rail_electric rail_fast ship" speed="5.86" length="9.08" shape="356.26,346.40 357.17,343.91 356.94,342.02 355.56,340.72 353.03,340.02"/>
    </edge>
    <edge id=":11300117919_9" function="internal">
        <lane id=":11300117919_9_0" index="0" disallow="tram rail_urban rail rail_electric rail_fast ship" speed="8.94" length="17.06" shape="356.26,346.40 364.45,331.43"/>
    </edge>
    <edge id=":11300117919_10" function="internal">
        <lane id=":11300117919_10_0" index="0" disallow="tram rail_urban rail rail_electric rail_fast ship" speed="8.94" length="16.89" shape="356.26,346.40 358.84,342.79 362.05,340.43 365.89,339.34 370.37,339.50"/>
    </edge>
    <edge id=":11300117919_11" function="internal">
        <lane id=":11300117919_11_0" index="0" disallow="tram rail_urban rail rail_electric rail_fast ship" speed="3.65" length="4.67" shape="356.26,346.40 357.53,345.72 358.42,345.74 358.94,346.47 359.08,347.91"/>
    </edge>
    <edge id=":2187068232_0" function="internal">
        <lane id=":2187068232_0_0" index="0" disallow="tram rail_urban rail rail_electric rail_fast ship" speed="8.94" length="8.40" shape="268.35,340.29 260.35,340.42"/>
        <lane id=":2187068232_0_1" index="1" disallow="tram rail_urban rail rail_electric rail_fast ship" speed="8.94" length="8.40" shape="268.35,340.29 265.88,339.83 264.32,338.76 262.77,337.68 260.30,337.22"/>
    </edge>
    <edge id=":2187075839_0" function="internal">
        <lane id=":2187075839_0_0" index="0" disallow="tram rail_urban rail rail_electric rail_fast ship" speed="9.15" length="1.90" shape="387.40,252.69 387.43,253.25 387.42,253.63 387.33,254.01 387.16,254.55"/>
    </edge>
    <edge id=":2187075839_1" function="internal">
        <lane id=":2187075839_1_0" index="0" disallow="tram rail_urban rail rail_electric rail_fast ship" speed="15.58" length="0.63" shape="384.13,253.52 384.19,253.34 384.22,253.22 384.22,253.09 384.21,252.90"/>
    </edge>
    <edge id=":2187084349_0" function="internal">
        <lane id=":2187084349_0_0" index="0" disallow="tram rail_urban rail rail_electric rail_fast ship" speed="22.22" length="5.01" shape="382.41,268.43 382.34,263.42"/>
    </edge>
    <edge id=":2187084349_1" function="internal">
        <lane id=":2187084349_1_0" index="0" disallow="tram rail_urban rail rail_electric rail_fast ship" speed="22.22" length="5.00" shape="385.54,263.38 385.61,268.39"/>
    </edge>
    <edge id=":2187084366_0" function="internal">
        <lane id=":2187084366_0_0" index="0" disallow="tram rail_urban rail rail_electric rail_fast ship" speed="8.94" length="5.52" shape="385.45,289.94 384.99,295.44"/>
    </edge>
    <edge id=":2187084366_1" function="internal">
        <lane id=":2187084366_1_0" index="0" disallow="tram rail_urban rail rail_electric rail_fast ship" speed="8.94" length="5.39" shape="381.81,295.11 382.26,289.74"/>
    </edge>
    <edge id=":248571319_0" function="internal">
        <lane id=":248571319_0_0" index="0" disallow="tram rail_urban rail rail_electric rail_fast ship" speed="8.94" length="7.16" shape="487.70,365.04 480.74,363.34"/>
    </edge>
    <edge id=":248571319_1" function="internal">
        <lane id=":248571319_1_0" index="0" disallow="tram rail_urban rail rail_electric rail_fast ship" speed="8.94" length="7.22" shape="482.22,357.12 489.26,358.83"/>
        <lane id=":248571319_1_1" index="1" disallow="tram rail_urban rail rail_electric rail_fast ship" speed="8.94" length="7.22" shape="481.48,360.23 488.48,361.94"/>
    </edge>
    <edge id=":249533295_0" function="internal">
        <lane id=":249533295_0_0" index="0" disallow="tram rail_urban rail rail_electric rail_fast ship" speed="8.94" length="5.02" shape="180.97,341.39 175.94,341.47"/>
        <lane id=":249533295_0_1" index="1" disallow="tram rail_urban rail rail_electric rail_fast ship" speed="8.94" length="5.02" shape="180.91,338.19 175.90,338.27"/>
    </edge>
    <edge id=":249560490_0" function="internal">
        <lane id=":249560490_0_0" index="0" disallow="tram rail_urban rail rail_electric rail_fast ship" speed="8.94" length="5.61" shape="140.87,341.88 135.26,341.96"/>
        <lane id=":249560490_0_1" index="1" disallow="tram rail_urban rail rail_electric rail_fast ship" speed="8.94" length="5.61" shape="140.82,338.68 135.21,338.76"/>
    </edge>
    <edge id=":250755073_0" function="internal">
        <lane id=":250755073_0_0" index="0" disallow="tram rail_urban rail rail_electric rail_fast ship" speed="15.58" length="0.26" shape="382.54,277.57 382.54,277.31"/>
    </edge>
    <edge id=":250755073_1" function="internal">
        <lane id=":250755073_1_0" index="0" disallow="tram rail_urban rail rail_electric rail_fast ship" speed="15.58" length="0.31" shape="385.74,277.26 385.74,277.58"/>
    </edge>
    <edge id=":251268961_0" function="internal">
        <lane id=":251268961_0_0" index="0" disallow="tram rail_urban rail rail_electric rail_fast ship" speed="8.94" length="8.31" shape="432.23,354.36 429.77,354.24 428.10,354.01 426.46,353.57 424.12,352.80"/>
    </edge>
    <edge id=":251268961_1" function="internal">
        <lane id=":251268961_1_0" index="0" disallow="tram rail_urban rail rail_electric rail_fast ship" speed="8.94" length="7.40" shape="425.11,349.76 427.20,350.44 428.65,350.84 430.14,351.05 432.33,351.16"/>
    </edge>
    <edge id=":251690382_0" function="internal">
        <lane id=":251690382_0_0" index="0" allow="pedestrian delivery bicycle" speed="5.56" length="4.97" shape="433.40,206.02 433.43,210.98"/>
    </edge>
    <edge id=":2521469224_0" function="internal">
        <lane id=":2521469224_0_0" index="0" disallow="tram rail_urban rail rail_electric rail_fast ship" speed="8.94" length="5.19" shape="383.19,227.76 383.13,222.56"/>
    </edge>
    <edge id=":2521469224_1" function="internal">
        <lane id=":2521469224_1_0" index="0" disallow="tram rail_urban rail rail_electric rail_fast ship" speed="8.94" length="5.19" shape="386.33,222.53 386.39,227.72"/>
    </edge>
    <edge id=":2521469232_0" function="internal">
        <lane id=":2521469232_0_0" index="0" disallow="tram rail_urban rail rail_electric rail_fast ship" speed="8.94" length="5.05" shape="345.78,403.13 345.42,398.09"/>
    </edge>
    <edge id=":2521469232_1" function="internal">
        <lane id=":2521469232_1_0" index="0" disallow="tram rail_urban rail rail_electric rail_fast ship" speed="8.94" length="5.02" shape="348.62,397.88 348.97,402.89"/>
    </edge>
    <edge id=":258918427_0" function="internal">
        <lane id=":258918427_0_0" index="0" allow="pedestrian delivery bicycle" speed="3.48" length="1.83" shape="346.94,440.18 345.26,440.89"/>
    </edge>
    <edge id=":258918427_1" function="internal">
        <lane id=":258918427_1_0" index="0" disallow="tram rail_urban rail rail_electric rail_fast ship" speed="8.94" length="5.61" shape="346.94,440.18 346.89,434.58"/>
    </edge>
    <edge id=":258918427_2" function="internal">
        <lane id=":258918427_2_0" index="0" disallow="tram rail_urban rail rail_electric rail_fast ship" speed="8.94" length="5.62" shape="350.09,434.54 350.14,440.16"/>
    </edge>
    <edge id=":258918427_3" function="internal">
        <lane id=":258918427_3_0" index="0" allow="pedestrian delivery bicycle" speed="6.49" length="3.64" shape="350.09,434.54 349.81,437.33 349.47,438.10"/>
    </edge>
    <edge id=":258918427_7" function="internal">
        <lane id=":258918427_7_0" index="0" allow="pedestrian delivery bicycle" speed="6.49" length="5.44" shape="349.47,438.10 348.92,439.31 347.40,440.50 345.26,440.89"/>
    </edge>
    <edge id=":258918427_4" function="internal">
        <lane id=":258918427_4_0" index="0" allow="pedestrian delivery bicycle" speed="4.55" length="3.91" shape="345.27,437.69 345.99,437.50 346.50,436.92 346.80,435.94 346.89,434.58"/>
    </edge>
    <edge id=":258918427_5" function="internal">
        <lane id=":258918427_5_0" index="0" allow="pedestrian delivery bicycle" speed="5.47" length="6.05" shape="345.27,437.69 347.40,437.85 348.92,438.32 349.83,439.09 350.14,440.16"/>
    </edge>
    <edge id=":258918427_6" function="internal">
        <lane id=":258918427_6_0" index="0" allow="pedestrian delivery bicycle" speed="3.65" length="4.67" shape="345.27,437.69 346.47,438.50 346.86,439.30 346.46,440.10 345.26,440.89"/>
    </edge>
    <edge id=":258918582_0" function="internal">
        <lane id=":258918582_0_0" index="0" allow="pedestrian delivery bicycle" speed="5.04" length="5.00" shape="307.86,440.47 306.50,440.65 305.52,441.22 304.93,442.19 304.72,443.54"/>
    </edge>
    <edge id=":258918582_1" function="internal">
        <lane id=":258918582_1_0" index="0" allow="pedestrian delivery bicycle" speed="5.56" length="10.13" shape="307.86,440.47 305.11,440.05 303.14,438.86 301.96,436.90 301.56,434.17"/>
    </edge>
    <edge id=":258918582_2" function="internal">
        <lane id=":258918582_2_0" index="0" allow="pedestrian delivery bicycle" speed="3.65" length="4.67" shape="307.86,440.47 306.66,439.66 306.27,438.86 306.68,438.06 307.89,437.27"/>
    </edge>
    <edge id=":258918582_3" function="internal">
        <lane id=":258918582_3_0" index="0" allow="pedestrian delivery bicycle" speed="5.07" length="5.02" shape="304.76,434.16 304.96,435.51 305.55,436.48 306.52,437.07 307.89,437.27"/>
    </edge>
    <edge id=":258918582_4" function="internal">
        <lane id=":258918582_4_0" index="0" allow="pedestrian delivery bicycle" speed="5.56" length="9.38" shape="304.76,434.16 304.72,443.54"/>
    </edge>
    <edge id=":258918582_5" function="internal">
        <lane id=":258918582_5_0" index="0" allow="pedestrian delivery bicycle" speed="3.65" length="4.67" shape="304.76,434.16 303.96,435.36 303.16,435.76 302.36,435.36 301.56,434.17"/>
    </edge>
    <edge id=":258918582_6" function="internal">
        <lane id=":258918582_6_0" index="0" allow="pedestrian delivery bicycle" speed="5.56" length="9.34" shape="301.52,443.51 301.56,434.17"/>
    </edge>
    <edge id=":258918582_7" function="internal">
        <lane id=":258918582_7_0" index="0" allow="pedestrian delivery bicycle" speed="5.56" length="10.17" shape="301.52,443.51 301.94,440.75 303.15,438.80 305.13,437.64 307.89,437.27"/>
    </edge>
    <edge id=":258918582_8" function="internal">
        <lane id=":258918582_8_0" index="0" allow="pedestrian delivery bicycle" speed="3.65" length="4.67" shape="301.52,443.51 302.33,442.32 303.14,441.92 303.93,442.33 304.72,443.54"/>
    </edge>
    <edge id=":258918583_0" function="internal">
        <lane id=":258918583_0_0" index="0" allow="pedestrian delivery bicycle" speed="3.65" length="4.67" shape="301.49,393.02 302.29,391.82 303.09,391.42 303.89,391.82 304.69,393.02"/>
    </edge>
    <edge id=":258922367_0" function="internal">
        <lane id=":258922367_0_0" index="0" allow="pedestrian bicycle" speed="2.89" length="2.92" width="2.00" shape="356.79,417.52 357.40,416.86 357.94,416.70 358.39,417.02 358.76,417.84"/>
    </edge>
    <edge id=":258923670_0" function="internal">
        <lane id=":258923670_0_0" index="0" allow="pedestrian bicycle" speed="2.90" length="2.96" width="2.00" shape="357.43,426.02 356.72,426.58 356.16,426.67 355.75,426.27 355.51,425.39"/>
    </edge>
    <edge id=":274490071_0" function="internal">
        <lane id=":274490071_0_0" index="0" allow="pedestrian delivery bicycle" speed="5.56" length="3.99" shape="356.43,456.65 352.44,456.70"/>
    </edge>
    <edge id=":274490071_1" function="internal">
        <lane id=":274490071_1_0" index="0" allow="pedestrian delivery bicycle" speed="3.65" length="1.44" shape="356.43,456.65 355.22,455.88"/>
    </edge>
    <edge id=":274490071_4" function="internal">
        <lane id=":274490071_4_0" index="0" allow="pedestrian delivery bicycle" speed="3.65" length="3.23" shape="355.22,455.88 354.80,455.08 355.19,454.28 356.37,453.45"/>
    </edge>
    <edge id=":274490071_2" function="internal">
        <lane id=":274490071_2_0" index="0" allow="pedestrian delivery bicycle" speed="5.56" length="3.93" shape="352.44,453.50 356.37,453.45"/>
    </edge>
    <edge id=":274490071_3" function="internal">
        <lane id=":274490071_3_0" index="0" allow="pedestrian delivery bicycle" speed="3.65" length="1.44" shape="352.44,453.50 353.64,454.30"/>
    </edge>
    <edge id=":274490071_5" function="internal">
        <lane id=":274490071_5_0" index="0" allow="pedestrian delivery bicycle" speed="3.65" length="3.23" shape="353.64,454.30 354.04,455.10 353.64,455.90 352.44,456.70"/>
    </edge>
    <edge id=":3413804248_0" function="internal">
        <lane id=":3413804248_0_0" index="0" disallow="tram rail_urban rail rail_electric rail_fast ship" speed="8.94" length="7.99" shape="478.86,362.90 471.14,360.85"/>
    </edge>
    <edge id=":3413804248_1" function="internal">
        <lane id=":3413804248_1_0" index="0" disallow="tram rail_urban rail rail_electric rail_fast ship" speed="8.94" length="8.20" shape="472.04,357.78 474.45,357.96 476.16,357.30 477.89,356.60 480.34,356.67"/>
        <lane id=":3413804248_1_1" index="1" disallow="tram rail_urban rail rail_electric rail_fast ship" speed="8.94" length="8.20" shape="472.04,357.78 479.60,359.78"/>
    </edge>
    <edge id=":3417474952_0" function="internal">
        <lane id=":3417474952_0_0" index="0" allow="pedestrian delivery bicycle" speed="5.56" length="3.58" shape="345.06,440.89 341.48,440.86"/>
    </edge>
    <edge id=":3417474952_1" function="internal">
        <lane id=":3417474952_1_0" index="0" allow="pedestrian delivery bicycle" speed="3.65" length="1.44" shape="345.06,440.89 343.86,440.09"/>
    </edge>
    <edge id=":3417474952_4" function="internal">
        <lane id=":3417474952_4_0" index="0" allow="pedestrian delivery bicycle" speed="3.65" length="3.23" shape="343.86,440.09 343.46,439.29 343.87,438.49 345.07,437.69"/>
    </edge>
    <edge id=":3417474952_2" function="internal">
        <lane id=":3417474952_2_0" index="0" allow="pedestrian delivery bicycle" speed="5.56" length="3.55" shape="341.52,437.66 345.07,437.69"/>
    </edge>
    <edge id=":3417474952_3" function="internal">
        <lane id=":3417474952_3_0" index="0" allow="pedestrian delivery bicycle" speed="3.65" length="1.44" shape="341.52,437.66 342.71,438.47"/>
    </edge>
    <edge id=":3417474952_5" function="internal">
        <lane id=":3417474952_5_0" index="0" allow="pedestrian delivery bicycle" speed="3.65" length="3.23" shape="342.71,438.47 343.10,439.28 342.69,440.07 341.48,440.86"/>
    </edge>
    <edge id=":50309634_0" function="internal">
        <lane id=":50309634_0_0" index="0" disallow="tram rail_urban rail rail_electric rail_fast ship" speed="3.65" length="4.67" shape="383.65,-0.10 384.52,-1.25 385.35,-1.60 386.12,-1.15 386.85,0.10"/>
    </edge>
    <edge id=":50327991_0" function="internal">
        <lane id=":50327991_0_0" index="0" disallow="tram rail_urban rail rail_electric rail_fast ship" speed="8.94" length="6.27" shape="383.08,217.66 383.05,211.39"/>
    </edge>
    <edge id=":50327991_1" function="internal">
        <lane id=":50327991_1_0" index="0" allow="pedestrian delivery bicycle" speed="5.03" length="5.01" shape="389.36,214.50 388.00,214.70 387.03,215.29 386.45,216.26 386.28,217.62"/>
    </edge>
    <edge id=":50327991_2" function="internal">
        <lane id=":50327991_2_0" index="0" allow="pedestrian delivery bicycle" speed="6.08" length="7.78" shape="389.36,214.50 386.59,214.31 384.62,213.73 383.44,212.76 383.05,211.39"/>
    </edge>
    <edge id=":50327991_3" function="internal">
        <lane id=":50327991_3_0" index="0" disallow="tram rail_urban rail rail_electric rail_fast ship" speed="8.94" length="6.22" shape="386.25,211.40 386.28,217.62"/>
    </edge>
    <edge id=":50327993_0" function="internal">
        <lane id=":50327993_0_0" index="0" allow="pedestrian delivery bicycle" speed="5.56" length="6.24" shape="436.56,214.50 430.32,214.46"/>
    </edge>
    <edge id=":50327993_1" function="internal">
        <lane id=":50327993_1_0" index="0" allow="pedestrian delivery bicycle" speed="5.03" length="5.02" shape="433.43,211.37 433.23,212.74 432.65,213.72 431.68,214.29 430.32,214.46"/>
    </edge>
    <edge id=":50328007_0" function="internal">
        <lane id=":50328007_0_0" index="0" allow="pedestrian delivery bicycle" speed="5.56" length="5.28" shape="553.32,196.63 552.44,197.93 551.79,198.78 551.07,199.59 549.99,200.72"/>
    </edge>
    <edge id=":50328039_0" function="internal">
        <lane id=":50328039_0_0" index="0" allow="pedestrian delivery bicycle" speed="5.56" length="6.19" shape="428.90,118.01 435.09,118.14"/>
    </edge>
    <edge id=":50328039_1" function="internal">
        <lane id=":50328039_1_0" index="0" allow="pedestrian delivery bicycle" speed="5.14" length="5.05" shape="428.90,118.01 430.23,118.25 431.19,118.86 431.78,119.87 431.99,121.25"/>
    </edge>
    <edge id=":50328040_0" function="internal">
        <lane id=":50328040_0_0" index="0" allow="pedestrian delivery bicycle" speed="5.10" length="5.05" shape="386.63,113.68 386.80,115.03 387.38,116.01 388.36,116.62 389.74,116.86"/>
    </edge>
    <edge id=":50328040_1" function="internal">
        <lane id=":50328040_1_0" index="0" disallow="tram rail_urban rail rail_electric rail_fast ship" speed="8.94" length="6.22" shape="386.63,113.68 386.57,119.90"/>
    </edge>
    <edge id=":50328040_2" function="internal">
        <lane id=":50328040_2_0" index="0" disallow="tram rail_urban rail rail_electric rail_fast ship" speed="8.94" length="6.27" shape="383.37,119.90 383.43,113.63"/>
    </edge>
    <edge id=":50328040_3" function="internal">
        <lane id=":50328040_3_0" index="0" allow="pedestrian delivery bicycle" speed="6.04" length="7.86" shape="383.37,119.90 383.77,118.48 384.97,117.50 386.96,116.96 389.74,116.86"/>
    </edge>
    <edge id=":50737663_0" function="internal">
        <lane id=":50737663_0_0" index="0" disallow="tram rail_urban rail rail_electric rail_fast ship" speed="3.65" length="4.67" shape="350.77,504.64 350.00,505.86 349.21,506.28 348.40,505.90 347.57,504.72"/>
    </edge>
    <edge id=":5689546563_0" function="internal">
        <lane id=":5689546563_0_0" index="0" allow="pedestrian delivery bicycle" speed="5.56" length="5.14" shape="395.29,214.50 390.15,214.50"/>
    </edge>
    <edge id=":5689608862_0" function="internal">
        <lane id=":5689608862_0_0" index="0" disallow="tram rail_urban rail rail_electric rail_fast ship" speed="8.94" length="4.97" shape="296.83,339.83 291.85,339.97"/>
    </edge>
    <edge id=":5962567114_0" function="internal">
        <lane id=":5962567114_0_0" index="0" disallow="tram rail_urban rail rail_electric rail_fast ship" speed="8.94" length="0.28" shape="300.01,339.72 299.73,339.72"/>
    </edge>
    <edge id=":6519103277_0" function="internal">
        <lane id=":6519103277_0_0" index="0" disallow="tram rail_urban rail rail_electric rail_fast ship" speed="8.94" length="13.07" shape="219.98,341.07 207.64,340.87"/>
        <lane id=":6519103277_0_1" index="1" disallow="tram rail_urban rail rail_electric rail_fast ship" speed="8.94" length="13.07" shape="221.38,337.84 207.58,337.67"/>
    </edge>
    <edge id=":6533007783_0" function="internal">
        <lane id=":6533007783_0_0" index="0" allow="pedestrian delivery bicycle" speed="3.65" length="4.67" shape="372.42,439.63 373.62,440.43 374.02,441.23 373.62,442.03 372.42,442.83"/>
    </edge>
    <edge id=":6533007784_0" function="internal">
        <lane id=":6533007784_0_0" index="0" allow="pedestrian delivery bicycle" speed="5.56" length="4.13" shape="356.47,442.84 352.34,442.85"/>
    </edge>
    <edge id=":6533007784_1" function="internal">
        <lane id=":6533007784_1_0" index="0" allow="pedestrian delivery bicycle" speed="3.65" length="1.44" shape="356.47,442.84 355.27,442.04"/>
    </edge>
    <edge id=":6533007784_4" function="internal">
        <lane id=":6533007784_4_0" index="0" allow="pedestrian delivery bicycle" speed="3.65" length="3.23" shape="355.27,442.04 354.87,441.24 355.27,440.44 356.47,439.64"/>
    </edge>
    <edge id=":6533007784_2" function="internal">
        <lane id=":6533007784_2_0" index="0" allow="pedestrian delivery bicycle" speed="5.56" length="4.14" shape="352.33,439.65 356.47,439.64"/>
    </edge>
    <edge id=":6533007784_3" function="internal">
        <lane id=":6533007784_3_0" index="0" allow="pedestrian delivery bicycle" speed="3.65" length="1.44" shape="352.33,439.65 353.53,440.44"/>
    </edge>
    <edge id=":6533007784_5" function="internal">
        <lane id=":6533007784_5_0" index="0" allow="pedestrian delivery bicycle" speed="3.65" length="3.23" shape="353.53,440.44 353.94,441.24 353.54,442.04 352.34,442.85"/>
    </edge>
    <edge id=":6533007785_0" function="internal">
        <lane id=":6533007785_0_0" index="0" allow="pedestrian delivery bicycle" speed="3.65" length="4.67" shape="372.41,453.16 373.63,453.94 374.04,454.73 373.65,455.54 372.47,456.36"/>
    </edge>
    <edge id=":6545872082_0" function="internal">
        <lane id=":6545872082_0_0" index="0" allow="pedestrian bicycle" speed="2.89" length="2.92" width="2.00" shape="151.54,429.46 151.10,430.25 150.63,430.54 150.11,430.33 149.55,429.63"/>
    </edge>
    <edge id=":6545872083_0" function="internal">
        <lane id=":6545872083_0_0" index="0" allow="pedestrian bicycle" speed="3.36" length="4.48" width="2.00" shape="160.79,431.12 160.02,432.27 159.26,432.65 158.49,432.27 157.72,431.12"/>
    </edge>
    <edge id=":6545907585_0" function="internal">
        <lane id=":6545907585_0_0" index="0" allow="pedestrian bicycle" speed="2.89" length="2.92" width="2.00" shape="160.35,425.85 160.90,425.13 161.41,424.92 161.89,425.20 162.34,425.99"/>
    </edge>
    <edge id=":6545907586_0" function="internal">
        <lane id=":6545907586_0_0" index="0" allow="pedestrian bicycle" speed="2.89" length="2.92" width="2.00" shape="155.75,420.56 156.59,420.87 156.95,421.30 156.82,421.84 156.21,422.50"/>
    </edge>
    <edge id=":6545907688_0" function="internal">
        <lane id=":6545907688_0_0" index="0" allow="pedestrian delivery bicycle" speed="3.65" length="4.67" shape="304.59,456.38 303.78,457.57 302.97,457.96 302.18,457.55 301.39,456.34"/>
    </edge>
    <edge id=":6568788335_0" function="internal">
        <lane id=":6568788335_0_0" index="0" disallow="tram rail_urban rail rail_electric rail_fast ship" speed="8.94" length="5.60" shape="346.98,445.98 346.95,440.38"/>
    </edge>
    <edge id=":6568788335_1" function="internal">
        <lane id=":6568788335_1_0" index="0" allow="pedestrian delivery bicycle" speed="6.59" length="3.53" shape="346.98,445.98 347.29,443.22 347.61,442.55"/>
    </edge>
    <edge id=":6568788335_7" function="internal">
        <lane id=":6568788335_7_0" index="0" allow="pedestrian delivery bicycle" speed="6.59" length="5.75" shape="347.61,442.55 348.25,441.25 349.86,440.06 352.13,439.65"/>
    </edge>
    <edge id=":6568788335_2" function="internal">
        <lane id=":6568788335_2_0" index="0" allow="pedestrian delivery bicycle" speed="4.67" length="4.14" shape="352.14,442.85 351.28,443.05 350.66,443.63 350.29,444.60 350.18,445.96"/>
    </edge>
    <edge id=":6568788335_3" function="internal">
        <lane id=":6568788335_3_0" index="0" allow="pedestrian delivery bicycle" speed="5.57" length="6.35" shape="352.14,442.85 349.87,442.71 348.25,442.25 347.28,441.47 346.95,440.38"/>
    </edge>
    <edge id=":6568788335_4" function="internal">
        <lane id=":6568788335_4_0" index="0" allow="pedestrian delivery bicycle" speed="3.65" length="4.67" shape="352.14,442.85 350.94,442.06 350.54,441.26 350.93,440.46 352.13,439.65"/>
    </edge>
    <edge id=":6568788335_5" function="internal">
        <lane id=":6568788335_5_0" index="0" allow="pedestrian delivery bicycle" speed="3.64" length="2.11" shape="350.15,440.36 352.13,439.65"/>
    </edge>
    <edge id=":6568788335_6" function="internal">
        <lane id=":6568788335_6_0" index="0" disallow="tram rail_urban rail rail_electric rail_fast ship" speed="8.94" length="5.60" shape="350.15,440.36 350.18,445.96"/>
    </edge>
    <edge id=":6568788336_0" function="internal">
        <lane id=":6568788336_0_0" index="0" disallow="tram rail_urban rail rail_electric rail_fast ship" speed="8.94" length="9.40" shape="347.06,459.83 347.00,450.43"/>
    </edge>
    <edge id=":6568788336_1" function="internal">
        <lane id=":6568788336_1_0" index="0" allow="pedestrian delivery bicycle" speed="6.59" length="3.52" shape="347.06,459.83 347.37,457.06 347.69,456.40"/>
    </edge>