<routes>

    <!-- Route distribution -->
    <routeDistribution id="route0">
        <route id="route0" edges="-0 -1 -2 -3" probability="1.0"/>
    </routeDistribution>
    <routeDistribution id="route1">
        <route id="route1" edges="3 2 1 0" probability="1.0"/>
    </routeDistribution>
    <routeDistribution id="route2">
        <route id="route2" edges="-0 -4" probability="1.0"/>
    </routeDistribution>
    <routeDistribution id="route3">
        <route id="route3" edges="6 -2 -5" probability="1.0"/>
    </routeDistribution>
    <routeDistribution id="route4">
        <route id="route4" edges="5 2 -6" probability="1.0"/>
    </routeDistribution>
    <routeDistribution id="route5">
        <route id="route5" edges="4 -1 -6" probability="1.0"/>
    </routeDistribution>

    <!-- Vehicle type distribution -->
    <vType id="vType0" vClass="passenger" guiShape="passenger/sedan" color="1,0,0" speedDev="0.1" probability="1.0"/>

    <vTypeDistribution id="typeDist0">
        <vType id="vType1" vClass="passenger" guiShape="passenger/sedan" color="1,1,0" speedDev="0.1" probability="1.0"/>
    </vTypeDistribution>

    <!-- Traffic Flow -->
    <!-- <flow id="flow0" begin="0" type="typeDist0" route="route0" departSpeed="random" departLane="0" probability="0.05"/>  -->
    <flow id="flow1" begin="0" type="typeDist0" route="route1" departSpeed="random" departLane="0" probability="0.05"/> 
    <flow id="flow2" begin="0" type="typeDist0" route="route2" departSpeed="random" departLane="0" probability="0.05"/> 
    <flow id="flow3" begin="0" type="typeDist0" route="route3" departSpeed="random" departLane="0" probability="0.05"/> 
    <flow id="flow4" begin="0" type="typeDist0" route="route4" departSpeed="random" departLane="0" probability="0.05"/> 
    <!-- <flow id="flow5" begin="0" type="typeDist0" route="route5" departSpeed="random" departLane="0" probability="0.05"/>  -->

    <!-- Ego car -->
    <route id="routeEgo" edges="-1 -2"/>
    <!-- <vehicle id="Ego" type="vType0" route="routeEgo" depart="50" departSpeed="random" departLane="0" probability="0.1"/> -->

</routes>
				