<?xml version="1.0" encoding="UTF-8"?>

<!-- generated on 2024-03-25 23:34:59 by Eclipse SUMO netconvert Version 1.19.0
<configuration xmlns:xsi="http://www.w3.org/2001/XMLSchema-instance" xsi:noNamespaceSchemaLocation="http://sumo.dlr.de/xsd/netconvertConfiguration.xsd">

    <input>
        <osm-files value="regents.osm"/>
    </input>

    <output>
        <output-file value="regents.net.xml"/>
    </output>

    <projection>
        <proj.utm value="true"/>
    </projection>

    <processing>
        <geometry.remove value="true"/>
        <roundabouts.guess value="true"/>
    </processing>

    <tls_building>
        <tls.guess value="true"/>
        <tls.join value="true"/>
    </tls_building>

    <ramp_guessing>
        <ramps.guess value="true"/>
    </ramp_guessing>

    <junctions>
        <junctions.join value="true"/>
    </junctions>

</configuration>
-->

<net version="1.16" junctionCornerDetail="5" limitTurnSpeed="5.50" xmlns:xsi="http://www.w3.org/2001/XMLSchema-instance" xsi:noNamespaceSchemaLocation="http://sumo.dlr.de/xsd/net_file.xsd">

    <location netOffset="-331415.05,-4317180.01" convBoundary="0.00,0.00,1017.16,853.11" origBoundary="-76.946571,38.987572,-76.934785,38.995235" projParameter="+proj=utm +zone=18 +ellps=WGS84 +datum=WGS84 +units=m +no_defs"/>

    <type id="highway.cycleway" priority="1" numLanes="1" speed="5.56" allow="bicycle" oneway="0" width="2.00"/>
    <type id="highway.footway" priority="1" numLanes="1" speed="2.78" allow="pedestrian" oneway="1" width="2.00"/>
    <type id="highway.path" priority="1" numLanes="1" speed="5.56" allow="pedestrian bicycle" oneway="0" width="2.00"/>
    <type id="highway.primary_link" priority="7" numLanes="1" speed="22.22" disallow="tram rail_urban rail rail_electric rail_fast ship" oneway="0"/>
    <type id="highway.residential" priority="3" numLanes="1" speed="13.89" disallow="tram rail_urban rail rail_electric rail_fast ship" oneway="0"/>
    <type id="highway.service" priority="1" numLanes="1" speed="5.56" allow="pedestrian delivery bicycle" oneway="0"/>
    <type id="highway.steps" priority="1" numLanes="1" speed="1.39" allow="pedestrian" oneway="1" width="2.00"/>
    <type id="highway.tertiary" priority="10" numLanes="1" speed="22.22" disallow="tram rail_urban rail rail_electric rail_fast ship" oneway="0"/>
    <type id="highway.tertiary_link" priority="5" numLanes="1" speed="22.22" disallow="tram rail_urban rail rail_electric rail_fast ship" oneway="0"/>
    <type id="highway.unclassified" priority="4" numLanes="1" speed="13.89" disallow="tram rail_urban rail rail_electric rail_fast ship" oneway="0"/>

    <edge id=":1008887783_0" function="internal">
        <lane id=":1008887783_0_0" index="0" disallow="tram rail_urban rail rail_electric rail_fast ship" speed="8.94" length="17.75" shape="824.49,100.10 807.82,93.99"/>
    </edge>
    <edge id=":1008887783_1" function="internal">
        <lane id=":1008887783_1_0" index="0" disallow="tram rail_urban rail rail_electric rail_fast ship" speed="6.08" length="15.09" shape="824.49,100.10 821.68,97.55 821.51,93.99 823.53,90.86 827.33,89.57"/>
    </edge>
    <edge id=":1008887783_2" function="internal">
        <lane id=":1008887783_2_0" index="0" disallow="tram rail_urban rail rail_electric rail_fast ship" speed="3.65" length="4.68" shape="824.49,100.10 823.58,98.97 823.44,98.09 824.06,97.44 825.44,97.04"/>
    </edge>
    <edge id=":1008887783_3" function="internal">
        <lane id=":1008887783_3_0" index="0" disallow="tram rail_urban rail rail_electric rail_fast ship" speed="15.58" length="17.83" shape="809.68,87.87 815.31,89.20 819.81,89.64 823.66,89.61 827.33,89.57"/>
    </edge>
    <edge id=":1008887783_4" function="internal">
        <lane id=":1008887783_4_0" index="0" disallow="tram rail_urban rail rail_electric rail_fast ship" speed="8.94" length="17.79" shape="809.68,87.87 826.40,93.98"/>
        <lane id=":1008887783_4_1" index="1" disallow="tram rail_urban rail rail_electric rail_fast ship" speed="8.94" length="17.79" shape="808.75,90.93 825.44,97.04"/>
    </edge>
    <edge id=":1008887783_6" function="internal">
        <lane id=":1008887783_6_0" index="0" disallow="tram rail_urban rail rail_electric rail_fast ship" speed="3.65" length="4.67" shape="808.75,90.93 809.67,92.04 809.82,92.93 809.20,93.58 807.82,93.99"/>
    </edge>
    <edge id=":1008887828_0" function="internal">
        <lane id=":1008887828_0_0" index="0" disallow="tram rail_urban rail rail_electric rail_fast ship" speed="22.22" length="4.76" shape="860.52,87.31 861.91,87.02 862.86,86.86 863.83,86.79 865.24,86.80"/>
    </edge>
    <edge id=":1008887828_1" function="internal">
        <lane id=":1008887828_1_0" index="0" disallow="tram rail_urban rail rail_electric rail_fast ship" speed="6.54" length="2.73" shape="862.56,90.38 863.23,89.98 863.77,89.88 864.36,89.94 865.17,90.00"/>
    </edge>
    <edge id=":11191284731_0" function="internal">
        <lane id=":11191284731_0_0" index="0" disallow="tram rail_urban rail rail_electric rail_fast ship" speed="8.94" length="5.14" shape="387.07,196.85 384.28,201.17"/>
    </edge>
    <edge id=":11191284731_1" function="internal">
        <lane id=":11191284731_1_0" index="0" disallow="tram rail_urban rail rail_electric rail_fast ship" speed="8.94" length="5.15" shape="381.60,199.42 384.38,195.10"/>
    </edge>
    <edge id=":11203826903_0" function="internal">
        <lane id=":11203826903_0_0" index="0" allow="pedestrian bicycle" speed="5.56" length="5.01" width="2.00" shape="939.63,392.75 939.49,397.76"/>
    </edge>
    <edge id=":11203826903_1" function="internal">
        <lane id=":11203826903_1_0" index="0" allow="pedestrian bicycle" speed="2.89" length="2.39" width="2.00" shape="939.63,392.75 939.11,393.49 938.60,393.73 938.11,393.46 937.91,393.15"/>
    </edge>
    <edge id=":11203826903_4" function="internal">
        <lane id=":11203826903_4_0" index="0" allow="pedestrian bicycle" speed="2.89" length="0.53" width="2.00" shape="937.91,393.15 937.63,392.70"/>
    </edge>
    <edge id=":11203826903_2" function="internal">
        <lane id=":11203826903_2_0" index="0" allow="pedestrian bicycle" speed="5.56" length="5.01" width="2.00" shape="937.49,397.71 937.63,392.70"/>
    </edge>
    <edge id=":11203826903_3" function="internal">
        <lane id=":11203826903_3_0" index="0" allow="pedestrian bicycle" speed="2.89" length="2.39" width="2.00" shape="937.49,397.71 938.01,396.97 938.52,396.73 939.01,397.00 939.21,397.31"/>
    </edge>
    <edge id=":11203826903_5" function="internal">
        <lane id=":11203826903_5_0" index="0" allow="pedestrian bicycle" speed="2.89" length="0.53" width="2.00" shape="939.21,397.31 939.49,397.76"/>
    </edge>
    <edge id=":2157492344_0" function="internal">
        <lane id=":2157492344_0_0" index="0" allow="pedestrian delivery bicycle" speed="3.65" length="4.67" shape="663.12,536.70 662.04,535.75 661.75,534.90 662.25,534.16 663.55,533.53"/>
    </edge>
    <edge id=":2171970774_0" function="internal">
        <lane id=":2171970774_0_0" index="0" allow="pedestrian bicycle" speed="5.56" length="6.37" width="2.00" shape="969.34,288.50 966.94,294.40"/>
    </edge>
    <edge id=":2171970774_1" function="internal">
        <lane id=":2171970774_1_0" index="0" allow="pedestrian bicycle" speed="2.89" length="0.79" width="2.00" shape="969.34,288.50 968.68,288.94"/>
    </edge>
    <edge id=":2171970774_4" function="internal">
        <lane id=":2171970774_4_0" index="0" allow="pedestrian bicycle" speed="2.89" length="2.13" width="2.00" shape="968.68,288.94 968.59,289.00 968.03,289.04 967.67,288.62 967.49,287.73"/>
    </edge>
    <edge id=":2171970774_2" function="internal">
        <lane id=":2171970774_2_0" index="0" allow="pedestrian bicycle" speed="5.56" length="6.40" width="2.00" shape="965.08,293.66 967.49,287.73"/>
    </edge>
    <edge id=":2171970774_3" function="internal">
        <lane id=":2171970774_3_0" index="0" allow="pedestrian bicycle" speed="2.89" length="2.41" width="2.00" shape="965.08,293.66 965.83,293.15 966.38,293.10 966.75,293.52 966.84,293.90"/>
    </edge>
    <edge id=":2171970774_5" function="internal">
        <lane id=":2171970774_5_0" index="0" allow="pedestrian bicycle" speed="2.89" length="0.51" width="2.00" shape="966.84,293.90 966.94,294.40"/>
    </edge>
    <edge id=":2189168648_0" function="internal">
        <lane id=":2189168648_0_0" index="0" disallow="tram rail_urban rail rail_electric rail_fast ship" speed="8.94" length="4.03" shape="504.09,433.56 500.06,433.61"/>
    </edge>
    <edge id=":2189168648_1" function="internal">
        <lane id=":2189168648_1_0" index="0" disallow="tram rail_urban rail rail_electric rail_fast ship" speed="8.94" length="4.04" shape="500.01,430.41 504.05,430.36"/>
    </edge>
    <edge id=":2189168649_0" function="internal">
        <lane id=":2189168649_0_0" index="0" disallow="tram rail_urban rail rail_electric rail_fast ship" speed="8.94" length="4.38" shape="510.28,441.03 509.67,439.88 509.28,439.07 509.04,438.22 508.85,436.94"/>
    </edge>
    <edge id=":2189168649_1" function="internal">
        <lane id=":2189168649_1_0" index="0" disallow="tram rail_urban rail rail_electric rail_fast ship" speed="8.94" length="3.41" shape="512.03,436.57 512.19,437.56 512.40,438.22 512.72,438.84 513.21,439.73"/>
    </edge>
    <edge id=":2189175673_0" function="internal">
        <lane id=":2189175673_0_0" index="0" disallow="tram rail_urban rail rail_electric rail_fast ship" speed="8.94" length="9.68" shape="343.18,440.62 333.53,441.40"/>
    </edge>
    <edge id=":2189175673_1" function="internal">
        <lane id=":2189175673_1_0" index="0" disallow="tram rail_urban rail rail_electric rail_fast ship" speed="8.94" length="9.73" shape="333.24,438.22 342.94,437.43"/>
    </edge>
    <edge id=":2190629954_0" function="internal">
        <lane id=":2190629954_0_0" index="0" allow="pedestrian delivery bicycle" speed="3.65" length="4.67" shape="244.12,93.62 244.91,92.41 245.71,92.01 246.51,92.41 247.32,93.60"/>
    </edge>
    <edge id=":2190629968_0" function="internal">
        <lane id=":2190629968_0_0" index="0" allow="pedestrian delivery bicycle" speed="5.56" length="5.87" shape="243.87,148.77 239.70,144.65"/>
    </edge>
    <edge id=":2190629968_1" function="internal">
        <lane id=":2190629968_1_0" index="0" allow="pedestrian delivery bicycle" speed="3.65" length="1.44" shape="243.87,148.77 243.54,147.37"/>
    </edge>
    <edge id=":2190629968_4" function="internal">
        <lane id=":2190629968_4_0" index="0" allow="pedestrian delivery bicycle" speed="3.65" length="3.23" shape="243.54,147.37 243.79,146.51 244.63,146.20 246.05,146.43"/>
    </edge>
    <edge id=":2190629968_2" function="internal">
        <lane id=":2190629968_2_0" index="0" allow="pedestrian delivery bicycle" speed="5.56" length="5.66" shape="242.03,142.45 246.05,146.43"/>
    </edge>
    <edge id=":2190629968_3" function="internal">
        <lane id=":2190629968_3_0" index="0" allow="pedestrian delivery bicycle" speed="3.65" length="1.44" shape="242.03,142.45 242.27,143.87"/>
    </edge>
    <edge id=":2190629968_5" function="internal">
        <lane id=":2190629968_5_0" index="0" allow="pedestrian delivery bicycle" speed="3.65" length="3.23" shape="242.27,143.87 241.96,144.71 241.11,144.97 239.70,144.65"/>
    </edge>
    <edge id=":2190629973_0" function="internal">
        <lane id=":2190629973_0_0" index="0" allow="pedestrian delivery bicycle" speed="5.56" length="8.31" shape="260.17,163.29 257.71,163.35 256.03,163.53 254.38,163.90 252.00,164.54"/>
    </edge>
    <edge id=":2190629973_1" function="internal">
        <lane id=":2190629973_1_0" index="0" allow="pedestrian delivery bicycle" speed="5.56" length="9.42" shape="260.17,163.29 258.58,162.95 256.83,161.91 254.93,160.18 252.88,157.75"/>
    </edge>
    <edge id=":2190629973_2" function="internal">
        <lane id=":2190629973_2_0" index="0" allow="pedestrian delivery bicycle" speed="3.65" length="4.67" shape="260.17,163.29 258.97,162.50 258.56,161.70 258.96,160.90 260.16,160.09"/>
    </edge>
    <edge id=":2190629973_3" function="internal">
        <lane id=":2190629973_3_0" index="0" allow="pedestrian delivery bicycle" speed="5.56" length="5.54" shape="256.03,156.59 257.29,158.13 258.40,159.22 259.36,159.88 260.16,160.09"/>
    </edge>
    <edge id=":2190629973_4" function="internal">
        <lane id=":2190629973_4_0" index="0" allow="pedestrian delivery bicycle" speed="5.56" length="11.38" shape="256.03,156.59 257.42,159.23 257.21,161.43 255.40,163.21 252.00,164.54"/>
    </edge>
    <edge id=":2190629973_5" function="internal">
        <lane id=":2190629973_5_0" index="0" allow="pedestrian delivery bicycle" speed="3.71" length="4.89" shape="256.03,156.59 255.67,158.06 255.03,158.74 254.10,158.64 252.88,157.75"/>
    </edge>
    <edge id=":2190629973_6" function="internal">
        <lane id=":2190629973_6_0" index="0" allow="pedestrian delivery bicycle" speed="4.61" length="5.22" shape="251.18,161.45 252.70,160.84 253.49,160.02 253.55,158.99 252.88,157.75"/>
    </edge>
    <edge id=":2190629973_7" function="internal">
        <lane id=":2190629973_7_0" index="0" allow="pedestrian delivery bicycle" speed="5.56" length="9.13" shape="251.18,161.45 253.79,160.75 255.61,160.34 257.45,160.15 260.16,160.09"/>
    </edge>
    <edge id=":2190629973_8" function="internal">
        <lane id=":2190629973_8_0" index="0" allow="pedestrian delivery bicycle" speed="3.65" length="4.67" shape="251.18,161.45 252.54,161.91 253.14,162.58 252.95,163.46 252.00,164.54"/>
    </edge>
    <edge id=":2190629974_0" function="internal">
        <lane id=":2190629974_0_0" index="0" allow="pedestrian delivery bicycle" speed="3.65" length="4.67" shape="367.49,162.24 368.28,161.03 369.08,160.63 369.88,161.02 370.69,162.22"/>
    </edge>
    <edge id=":2190629975_0" function="internal">
        <lane id=":2190629975_0_0" index="0" allow="pedestrian delivery bicycle" speed="3.65" length="4.67" shape="271.41,160.04 272.61,160.83 273.02,161.63 272.62,162.43 271.43,163.24"/>
    </edge>
    <edge id=":2195570738_0" function="internal">
        <lane id=":2195570738_0_0" index="0" allow="pedestrian bicycle" speed="5.56" length="13.51" width="2.00" shape="998.72,226.84 995.81,228.70 993.62,231.03 991.73,233.73 989.77,236.70"/>
    </edge>
    <edge id=":2195570738_1" function="internal">
        <lane id=":2195570738_1_0" index="0" allow="pedestrian bicycle" speed="3.04" length="2.96" width="2.00" shape="998.72,226.84 997.80,227.13 997.21,227.01 996.96,226.47 997.02,225.68"/>
    </edge>
    <edge id=":2195570738_4" function="internal">
        <lane id=":2195570738_4_0" index="0" allow="pedestrian bicycle" speed="3.04" length="0.17" width="2.00" shape="997.02,225.68 997.03,225.51"/>
    </edge>
    <edge id=":2195570738_2" function="internal">
        <lane id=":2195570738_2_0" index="0" allow="pedestrian bicycle" speed="5.56" length="13.49" width="2.00" shape="988.13,235.57 990.17,232.69 992.17,230.15 994.38,227.80 997.03,225.51"/>
    </edge>
    <edge id=":2195570738_3" function="internal">
        <lane id=":2195570738_3_0" index="0" allow="pedestrian bicycle" speed="2.89" length="0.79" width="2.00" shape="988.13,235.57 988.86,235.27"/>
    </edge>
    <edge id=":2195570738_5" function="internal">
        <lane id=":2195570738_5_0" index="0" allow="pedestrian bicycle" speed="2.89" length="2.13" width="2.00" shape="988.86,235.27 988.97,235.23 989.52,235.31 989.79,235.80 989.77,236.70"/>
    </edge>
    <edge id=":2195587845_0" function="internal">
        <lane id=":2195587845_0_0" index="0" disallow="tram rail_urban rail rail_electric rail_fast ship" speed="11.12" length="7.46" shape="857.56,95.89 858.41,93.91 859.33,92.71 860.58,91.76 862.40,90.49"/>
    </edge>
    <edge id=":2195587848_0" function="internal">
        <lane id=":2195587848_0_0" index="0" disallow="tram rail_urban rail rail_electric rail_fast ship" speed="8.94" length="9.82" shape="855.86,123.11 853.42,124.21 851.49,125.68 850.05,127.51 849.12,129.71"/>
    </edge>
    <edge id=":2195587848_1" function="internal">
        <lane id=":2195587848_1_0" index="0" disallow="tram rail_urban rail rail_electric rail_fast ship" speed="8.94" length="9.63" shape="851.91,120.50 849.12,129.71"/>
    </edge>
    <edge id=":2195587848_2" function="internal">
        <lane id=":2195587848_2_0" index="0" disallow="tram rail_urban rail rail_electric rail_fast ship" speed="3.65" length="1.44" shape="851.91,120.50 850.80,121.42"/>
    </edge>
    <edge id=":2195587848_5" function="internal">
        <lane id=":2195587848_5_0" index="0" disallow="tram rail_urban rail rail_electric rail_fast ship" speed="3.65" length="3.23" shape="850.80,121.42 849.92,121.57 849.27,120.96 848.85,119.58"/>
    </edge>
    <edge id=":2195587848_3" function="internal">
        <lane id=":2195587848_3_0" index="0" disallow="tram rail_urban rail rail_electric rail_fast ship" speed="8.94" length="9.67" shape="846.05,128.83 848.85,119.58"/>
    </edge>
    <edge id=":2195587848_4" function="internal">
        <lane id=":2195587848_4_0" index="0" disallow="tram rail_urban rail rail_electric rail_fast ship" speed="3.65" length="1.44" shape="846.05,128.83 847.14,127.90"/>
    </edge>
    <edge id=":2195587848_6" function="internal">
        <lane id=":2195587848_6_0" index="0" disallow="tram rail_urban rail rail_electric rail_fast ship" speed="3.65" length="3.23" shape="847.14,127.90 848.02,127.74 848.68,128.34 849.12,129.71"/>
    </edge>
    <edge id=":2484276909_0" function="internal">
        <lane id=":2484276909_0_0" index="0" allow="pedestrian delivery bicycle" speed="3.65" length="4.67" shape="479.78,357.14 478.56,356.37 478.15,355.57 478.53,354.77 479.72,353.94"/>
    </edge>
    <edge id=":248571330_0" function="internal">
        <lane id=":248571330_0_0" index="0" disallow="tram rail_urban rail rail_electric rail_fast ship" speed="8.94" length="5.33" shape="847.05,136.97 845.46,142.05"/>
    </edge>
    <edge id=":248571330_1" function="internal">
        <lane id=":248571330_1_0" index="0" disallow="tram rail_urban rail rail_electric rail_fast ship" speed="8.94" length="5.16" shape="842.43,141.01 843.97,136.09"/>
    </edge>
    <edge id=":2501306082_0" function="internal">
        <lane id=":2501306082_0_0" index="0" disallow="tram rail_urban rail rail_electric rail_fast ship" speed="3.65" length="4.67" shape="0.96,413.54 -0.48,413.62 -1.28,413.22 -1.44,412.34 -0.96,410.98"/>
    </edge>
    <edge id=":251632330_0" function="internal">
        <lane id=":251632330_0_0" index="0" disallow="tram rail_urban rail rail_electric rail_fast ship" speed="8.94" length="5.02" shape="802.01,301.84 801.94,296.82"/>
    </edge>
    <edge id=":251632330_1" function="internal">
        <lane id=":251632330_1_0" index="0" disallow="tram rail_urban rail rail_electric rail_fast ship" speed="8.94" length="5.02" shape="805.14,296.78 805.21,301.80"/>
    </edge>
    <edge id=":251632834_0" function="internal">
        <lane id=":251632834_0_0" index="0" allow="pedestrian delivery bicycle" speed="5.56" length="5.63" shape="531.58,445.90 529.92,446.12 528.79,446.34 527.72,446.74 526.24,447.51"/>
    </edge>
    <edge id=":251632834_1" function="internal">
        <lane id=":251632834_1_0" index="0" allow="pedestrian delivery bicycle" speed="3.65" length="1.44" shape="531.58,445.90 530.28,445.27"/>
    </edge>
    <edge id=":251632834_4" function="internal">
        <lane id=":251632834_4_0" index="0" allow="pedestrian delivery bicycle" speed="3.65" length="3.23" shape="530.28,445.27 529.78,444.53 530.07,443.68 531.16,442.73"/>
    </edge>
    <edge id=":251632834_2" function="internal">
        <lane id=":251632834_2_0" index="0" allow="pedestrian delivery bicycle" speed="5.56" length="6.83" shape="524.69,444.71 526.48,443.77 527.78,443.27 529.15,443.00 531.16,442.73"/>
    </edge>
    <edge id=":251632834_3" function="internal">
        <lane id=":251632834_3_0" index="0" allow="pedestrian delivery bicycle" speed="3.65" length="1.44" shape="524.69,444.71 526.13,444.83"/>
    </edge>
    <edge id=":251632834_5" function="internal">
        <lane id=":251632834_5_0" index="0" allow="pedestrian delivery bicycle" speed="3.65" length="3.23" shape="526.13,444.83 526.87,445.34 526.91,446.23 526.24,447.51"/>
    </edge>
    <edge id=":251692985_0" function="internal">
        <lane id=":251692985_0_0" index="0" disallow="tram rail_urban rail rail_electric rail_fast ship" speed="22.22" length="8.80" shape="927.99,57.93 928.99,55.56 930.26,54.12 931.36,52.66 931.85,50.23"/>
    </edge>
    <edge id=":2517628194_0" function="internal">
        <lane id=":2517628194_0_0" index="0" disallow="tram rail_urban rail rail_electric rail_fast ship" speed="8.94" length="9.40" shape="642.39,294.54 632.99,294.65"/>
    </edge>
    <edge id=":2517628194_1" function="internal">
        <lane id=":2517628194_1_0" index="0" allow="pedestrian delivery bicycle" speed="6.87" length="3.26" shape="642.39,294.54 639.64,294.18 639.23,293.94"/>
    </edge>
    <edge id=":2517628194_7" function="internal">
        <lane id=":2517628194_7_0" index="0" allow="pedestrian delivery bicycle" speed="6.87" length="6.91" shape="639.23,293.94 637.66,293.02 636.45,291.06 636.01,288.31"/>
    </edge>
    <edge id=":2517628194_2" function="internal">
        <lane id=":2517628194_2_0" index="0" allow="pedestrian delivery bicycle" speed="5.06" length="5.02" shape="639.21,288.25 639.43,289.62 640.02,290.59 641.00,291.16 642.36,291.34"/>
    </edge>
    <edge id=":2517628194_3" function="internal">
        <lane id=":2517628194_3_0" index="0" allow="pedestrian delivery bicycle" speed="6.86" length="10.19" shape="639.21,288.25 638.86,291.02 637.71,293.01 635.75,294.22 632.99,294.65"/>
    </edge>
    <edge id=":2517628194_4" function="internal">
        <lane id=":2517628194_4_0" index="0" allow="pedestrian delivery bicycle" speed="3.65" length="4.67" shape="639.21,288.25 638.43,289.47 637.64,289.88 636.83,289.49 636.01,288.31"/>
    </edge>
    <edge id=":2517628194_5" function="internal">
        <lane id=":2517628194_5_0" index="0" allow="pedestrian delivery bicycle" speed="5.03" length="5.01" shape="632.96,291.45 634.31,291.24 635.27,290.65 635.84,289.67 636.01,288.31"/>
    </edge>
    <edge id=":2517628194_6" function="internal">
        <lane id=":2517628194_6_0" index="0" disallow="tram rail_urban rail rail_electric rail_fast ship" speed="8.94" length="9.40" shape="632.96,291.45 642.36,291.34"/>
    </edge>
    <edge id=":2517628195_0" function="internal">
        <lane id=":2517628195_0_0" index="0" allow="pedestrian delivery bicycle" speed="3.65" length="4.67" shape="577.46,337.75 578.22,336.53 579.00,336.10 579.82,336.47 580.66,337.64"/>
    </edge>
    <edge id=":2517646005_0" function="internal">
        <lane id=":2517646005_0_0" index="0" allow="pedestrian delivery bicycle" speed="5.56" length="4.58" shape="922.30,399.05 922.10,397.71 921.94,396.79 921.75,395.88 921.43,394.56"/>
    </edge>
    <edge id=":2517646005_1" function="internal">
        <lane id=":2517646005_1_0" index="0" allow="pedestrian delivery bicycle" speed="3.65" length="4.67" shape="922.30,399.05 922.91,397.74 923.64,397.23 924.49,397.50 925.46,398.56"/>
    </edge>
    <edge id=":2517646005_2" function="internal">
        <lane id=":2517646005_2_0" index="0" allow="pedestrian delivery bicycle" speed="5.56" length="4.87" shape="924.54,393.79 924.88,395.19 925.08,396.16 925.24,397.13 925.46,398.56"/>
    </edge>
    <edge id=":2517646005_3" function="internal">
        <lane id=":2517646005_3_0" index="0" allow="pedestrian delivery bicycle" speed="3.65" length="4.67" shape="924.54,393.79 924.05,395.15 923.37,395.73 922.50,395.53 921.43,394.56"/>
    </edge>
    <edge id=":2517652411_0" function="internal">
        <lane id=":2517652411_0_0" index="0" disallow="tram rail_urban rail rail_electric rail_fast ship" speed="8.94" length="5.02" shape="801.85,287.79 801.82,282.77"/>
    </edge>
    <edge id=":2517652411_1" function="internal">
        <lane id=":2517652411_1_0" index="0" disallow="tram rail_urban rail rail_electric rail_fast ship" speed="8.94" length="5.02" shape="805.02,282.75 805.05,287.77"/>
    </edge>
    <edge id=":2521469232_0" function="internal">
        <lane id=":2521469232_0_0" index="0" disallow="tram rail_urban rail rail_electric rail_fast ship" speed="8.94" length="5.05" shape="504.86,71.66 504.51,66.62"/>
    </edge>
    <edge id=":2521469232_1" function="internal">
        <lane id=":2521469232_1_0" index="0" disallow="tram rail_urban rail rail_electric rail_fast ship" speed="8.94" length="5.02" shape="507.70,66.41 508.05,71.42"/>
    </edge>
    <edge id=":2528788463_0" function="internal">
        <lane id=":2528788463_0_0" index="0" disallow="tram rail_urban rail rail_electric rail_fast ship" speed="22.22" length="5.96" shape="845.42,89.82 847.19,89.82 848.40,89.75 849.59,89.56 851.33,89.21"/>
    </edge>
    <edge id=":254531666_0" function="internal">
        <lane id=":254531666_0_0" index="0" disallow="tram rail_urban rail rail_electric rail_fast ship" speed="3.65" length="4.67" shape="208.05,483.09 207.03,484.11 206.16,484.34 205.46,483.79 204.91,482.46"/>
    </edge>
    <edge id=":254939035_0" function="internal">
        <lane id=":254939035_0_0" index="0" disallow="tram rail_urban rail rail_electric rail_fast ship" speed="3.65" length="4.67" shape="810.56,678.13 809.78,679.34 808.99,679.76 808.18,679.37 807.36,678.19"/>
    </edge>
    <edge id=":258857860_0" function="internal">
        <lane id=":258857860_0_0" index="0" allow="pedestrian bicycle" speed="2.89" length="2.92" width="2.00" shape="1016.75,216.22 1017.64,216.37 1018.07,216.72 1018.05,217.28 1017.58,218.05"/>
    </edge>
    <edge id=":258918582_0" function="internal">
        <lane id=":258918582_0_0" index="0" allow="pedestrian delivery bicycle" speed="5.04" length="5.00" shape="466.94,109.00 465.58,109.18 464.61,109.75 464.01,110.71 463.81,112.06"/>
    </edge>
    <edge id=":258918582_1" function="internal">
        <lane id=":258918582_1_0" index="0" allow="pedestrian delivery bicycle" speed="5.56" length="10.13" shape="466.94,109.00 464.19,108.58 462.22,107.38 461.04,105.42 460.65,102.69"/>
    </edge>
    <edge id=":258918582_2" function="internal">
        <lane id=":258918582_2_0" index="0" allow="pedestrian delivery bicycle" speed="3.65" length="4.67" shape="466.94,109.00 465.75,108.18 465.36,107.38 465.77,106.58 466.98,105.80"/>
    </edge>
    <edge id=":258918582_3" function="internal">
        <lane id=":258918582_3_0" index="0" allow="pedestrian delivery bicycle" speed="5.07" length="5.02" shape="463.85,102.68 464.04,104.03 464.63,105.00 465.61,105.59 466.98,105.80"/>
    </edge>
    <edge id=":258918582_4" function="internal">
        <lane id=":258918582_4_0" index="0" allow="pedestrian delivery bicycle" speed="5.56" length="9.38" shape="463.85,102.68 463.81,112.06"/>
    </edge>
    <edge id=":258918582_5" function="internal">
        <lane id=":258918582_5_0" index="0" allow="pedestrian delivery bicycle" speed="3.65" length="4.67" shape="463.85,102.68 463.05,103.88 462.25,104.29 461.45,103.89 460.65,102.69"/>
    </edge>
    <edge id=":258918582_6" function="internal">
        <lane id=":258918582_6_0" index="0" allow="pedestrian delivery bicycle" speed="5.56" length="9.35" shape="460.61,112.03 460.65,102.69"/>
    </edge>
    <edge id=":258918582_7" function="internal">
        <lane id=":258918582_7_0" index="0" allow="pedestrian delivery bicycle" speed="5.56" length="10.17" shape="460.61,112.03 461.03,109.28 462.23,107.32 464.21,106.16 466.98,105.80"/>
    </edge>
    <edge id=":258918582_8" function="internal">
        <lane id=":258918582_8_0" index="0" allow="pedestrian delivery bicycle" speed="3.65" length="4.67" shape="460.61,112.03 461.42,110.84 462.22,110.45 463.02,110.86 463.81,112.06"/>
    </edge>
    <edge id=":258918583_0" function="internal">
        <lane id=":258918583_0_0" index="0" allow="pedestrian delivery bicycle" speed="3.65" length="4.67" shape="460.58,61.55 461.38,60.34 462.18,59.94 462.98,60.34 463.78,61.54"/>
    </edge>
    <edge id=":258922367_0" function="internal">
        <lane id=":258922367_0_0" index="0" allow="pedestrian bicycle" speed="2.89" length="2.92" width="2.00" shape="515.87,86.05 516.49,85.39 517.02,85.22 517.47,85.55 517.85,86.37"/>
    </edge>
    <edge id=":258923670_0" function="internal">
        <lane id=":258923670_0_0" index="0" allow="pedestrian bicycle" speed="2.90" length="2.96" width="2.00" shape="516.52,94.55 515.80,95.11 515.24,95.20 514.84,94.80 514.60,93.92"/>
    </edge>
    <edge id=":258937992_0" function="internal">
        <lane id=":258937992_0_0" index="0" allow="pedestrian delivery bicycle" speed="8.94" length="9.47" shape="609.68,178.03 600.21,178.30"/>
    </edge>
    <edge id=":258937992_1" function="internal">
        <lane id=":258937992_1_0" index="0" allow="pedestrian delivery bicycle" speed="6.84" length="3.33" shape="609.68,178.03 606.87,177.73 606.43,177.48"/>
    </edge>
    <edge id=":258937992_2" function="internal">
        <lane id=":258937992_2_0" index="0" allow="pedestrian delivery bicycle" speed="3.65" length="1.44" shape="609.68,178.03 608.45,177.27"/>
    </edge>
    <edge id=":258937992_9" function="internal">
        <lane id=":258937992_9_0" index="0" allow="pedestrian delivery bicycle" speed="6.84" length="6.94" shape="606.43,177.48 604.86,176.60 603.63,174.64 603.18,171.86"/>
    </edge>
    <edge id=":258937992_10" function="internal">
        <lane id=":258937992_10_0" index="0" allow="pedestrian delivery bicycle" speed="3.65" length="3.23" shape="608.45,177.27 608.02,176.48 608.39,175.67 609.56,174.83"/>
    </edge>
    <edge id=":258937992_3" function="internal">