<routes>

    <!-- Route distribution -->
    <routeDistribution id="route0">
        <route id="route0" edges="670380113#2 699146621#0  -6114188#4 -6114188#3 -6114188#2 -6114188#1 -6114188#0" probability="1.0"/>
    </routeDistribution>
    <routeDistribution id="route1">
        <route id="route1" edges="497500717#0 497500717#3 498878882#1 497505828#0 497505828#1 497505828#4" probability="1.0"/>
    </routeDistribution>
    <routeDistribution id="route2">
        <route id="route2" edges="-244875117#0 -497505828#1 -497505828#0 -498878882#1 -497500717#3 -497500717#0 -497699299#3 -497699299#2 -497699299#1 -497699299#0" probability="1.0"/>
    </routeDistribution>
    <routeDistribution id="route3">
        <route id="route3" edges="6114188#0 6114188#1 6114188#2 6114188#3 6114188#4 -699146621#0 -670380113#2 -670380113#1 -670380113#0" probability="1.0"/>
    </routeDistribution>
    <routeDistribution id="route4">
        <route id="route4" edges="6114188#0 6114188#1 6114188#2 6114188#3 6114188#4 -497500717#3 -497500717#0 -497699299#3 -497699299#2 -497699299#1 -497699299#0" probability="1.0"/>
    </routeDistribution>
    <routeDistribution id="route5">
        <route id="route5" edges="6114188#0 6114188#1 6114188#2 6114188#3 6114188#4 498878882#1 497505828#0 497505828#1 497505828#4" probability="1.0"/>
    </routeDistribution>
    

    <!-- Vehicle type distribution -->
    <vType id="vType0" vClass="passenger" guiShape="passenger/sedan" color="1,0,0" speedDev="0.1" probability="1.0"/>

    <vTypeDistribution id="typeDist0">
        <vType id="vType1" vClass="passenger" guiShape="passenger/sedan" color="1,1,0" speedDev="0.1" probability="1.0"/>
    </vTypeDistribution>

    <!-- Traffic Flow -->
    <!-- <flow id="flow0" begin="0" type="typeDist0" route="route0" departSpeed="random" departLane="0" probability="0.05"/>  -->
    <flow id="flow1" begin="0" type="typeDist0" route="route1" departSpeed="random" departLane="0" probability="0.025"/> 
    <flow id="flow2" begin="0" type="typeDist0" route="route2" departSpeed="random" departLane="0" probability="0.025"/> 
    <flow id="flow3" begin="0" type="typeDist0" route="route3" departSpeed="random" departLane="0" probability="0.025"/> 
    <flow id="flow4" begin="0" type="typeDist0" route="route4" departSpeed="random" departLane="0" probability="0.025"/> 
    <flow id="flow5" begin="0" type="typeDist0" route="route5" departSpeed="random" departLane="0" probability="0.025"/> 

    <!-- Ego car -->
    <route id="routeEgo" edges=" 699146621#0 -6114188#4 -6114188#3 -6114188#2 -6114188#1"/>
    <!-- <vehicle id="Ego" type="vType0" route="routeEgo" depart="50" departSpeed="random" departLane="0" probability="0.1"/> -->

</routes>
				