<?xml version="1.0" encoding="UTF-8"?>

<!-- generated on 2024-04-20 18:12:25 by Eclipse SUMO netconvert Version 1.19.0
<configuration xmlns:xsi="http://www.w3.org/2001/XMLSchema-instance" xsi:noNamespaceSchemaLocation="http://sumo.dlr.de/xsd/netconvertConfiguration.xsd">

    <input>
        <opendrive-files value="Roundabout.xodr"/>
    </input>

    <output>
        <output-file value="Roundabout.net.xml"/>
    </output>

    <processing>
        <geometry.remove value="true"/>
        <roundabouts.guess value="true"/>
    </processing>

    <ramp_guessing>
        <ramps.guess value="true"/>
    </ramp_guessing>

    <junctions>
        <no-turnarounds.except-deadend value="true"/>
    </junctions>

</configuration>
-->

<net version="1.16" junctionCornerDetail="5" rectangularLaneCut="true" limitTurnSpeed="5.50" xmlns:xsi="http://www.w3.org/2001/XMLSchema-instance" xsi:noNamespaceSchemaLocation="http://sumo.dlr.de/xsd/net_file.xsd">

    <location netOffset="170.14,150.48" convBoundary="0.00,0.00,310.33,309.71" origBoundary="0.000000,0.000000,0.000000,0.000000" projParameter="+proj=tmerc +lat_0=33.06476011037637 +lon_0=-117.2961216732871 +k=1 +x_0=0 +y_0=0 +datum=WGS84 +units=m  +vunits=m +no_defs "/>

    <type id="driving" priority="1" speed="13.89" disallow="pedestrian tram rail_urban rail rail_electric rail_fast ship" width="3.65"/>

    <edge id=":10.end_0" function="internal">
        <lane id=":10.end_0_0" index="0" disallow="pedestrian tram rail_urban rail rail_electric rail_fast ship" speed="3.82" length="5.11" width="3.50" shape="171.80,309.72 170.91,311.03 170.04,311.46 169.16,311.02 168.30,309.70"/>
    </edge>
    <edge id=":104_0" function="internal">
        <lane id=":104_0_0" index="0" disallow="pedestrian tram rail_urban rail rail_electric rail_fast ship" speed="17.88" length="34.85" width="3.50" shape="166.43,178.76 162.19,173.39 154.97,165.60 147.40,158.20 142.06,153.98"/>
    </edge>
    <edge id=":104_1" function="internal">
        <lane id=":104_1_0" index="0" disallow="pedestrian tram rail_urban rail rail_electric rail_fast ship" speed="17.88" length="34.13" width="3.50" shape="166.43,178.76 162.45,173.94 156.17,166.80 150.43,158.60 148.04,150.59"/>
    </edge>
    <edge id=":104_2" function="internal">
        <lane id=":104_2_0" index="0" disallow="pedestrian tram rail_urban rail rail_electric rail_fast ship" speed="17.88" length="33.85" width="3.50" shape="169.77,172.58 161.85,170.10 153.84,164.23 146.87,157.88 142.06,153.98"/>
    </edge>
    <edge id=":104_3" function="internal">
        <lane id=":104_3_0" index="0" disallow="pedestrian tram rail_urban rail rail_electric rail_fast ship" speed="12.19" length="35.74" width="3.50" shape="169.77,172.58 159.99,171.42 153.11,167.37 149.13,160.42 148.04,150.59"/>
        <lane id=":104_3_1" index="1" disallow="pedestrian tram rail_urban rail rail_electric rail_fast ship" speed="11.18" length="29.86" width="3.50" shape="169.69,169.09 161.52,168.11 155.77,164.73 152.45,158.92 151.54,150.70"/>
    </edge>
    <edge id=":147_0" function="internal">
        <lane id=":147_0_0" index="0" disallow="pedestrian tram rail_urban rail rail_electric rail_fast ship" speed="17.88" length="11.39" width="3.50" shape="173.58,182.90 172.85,186.00 172.48,188.47 172.34,190.98 172.31,194.17"/>
    </edge>
    <edge id=":147_1" function="internal">
        <lane id=":147_1_0" index="0" disallow="pedestrian tram rail_urban rail rail_electric rail_fast ship" speed="17.88" length="11.22" width="3.50" shape="168.81,194.16 168.96,190.98 169.16,188.50 169.05,186.08 168.29,183.04"/>
    </edge>
    <edge id=":16.end_0" function="internal">
        <lane id=":16.end_0_0" index="0" disallow="pedestrian tram rail_urban rail rail_electric rail_fast ship" speed="3.82" length="5.11" width="3.50" shape="-0.04,151.78 -1.33,150.87 -1.75,149.99 -1.29,149.13 0.04,148.28"/>
    </edge>
    <edge id=":166_0" function="internal">
        <lane id=":166_0_0" index="0" disallow="pedestrian tram rail_urban rail rail_electric rail_fast ship" speed="17.88" length="29.05" width="3.50" shape="197.26,159.71 192.17,162.86 185.22,168.05 178.77,173.70 175.16,178.26"/>
    </edge>
    <edge id=":166_1" function="internal">
        <lane id=":166_1_0" index="0" disallow="pedestrian tram rail_urban rail rail_electric rail_fast ship" speed="17.88" length="27.81" width="3.50" shape="197.26,159.71 192.70,162.03 186.33,165.09 178.92,167.78 171.28,169.05"/>
    </edge>
    <edge id=":166_2" function="internal">
        <lane id=":166_2_0" index="0" disallow="pedestrian tram rail_urban rail rail_electric rail_fast ship" speed="17.88" length="28.39" width="3.50" shape="191.48,155.35 188.42,162.42 183.34,168.75 178.25,174.10 175.16,178.26"/>
    </edge>
    <edge id=":166_3" function="internal">
        <lane id=":166_3_0" index="0" disallow="pedestrian tram rail_urban rail rail_electric rail_fast ship" speed="12.24" length="28.98" width="3.50" shape="191.48,155.35 189.05,162.71 184.88,168.03 178.99,171.31 171.37,172.54"/>
        <lane id=":166_3_1" index="1" disallow="pedestrian tram rail_urban rail rail_electric rail_fast ship" speed="11.21" length="24.15" width="3.50" shape="188.04,154.70 186.01,160.84 182.54,165.28 177.63,168.02 171.28,169.05"/>
    </edge>
    <edge id=":20_0" function="internal">
        <lane id=":20_0_0" index="0" disallow="pedestrian tram rail_urban rail rail_electric rail_fast ship" speed="17.88" length="9.64" width="3.50" shape="172.19,110.16 172.12,113.02 172.12,115.01 172.43,116.94 173.28,119.64"/>
    </edge>
    <edge id=":20_1" function="internal">
        <lane id=":20_1_0" index="0" disallow="pedestrian tram rail_urban rail rail_electric rail_fast ship" speed="17.88" length="9.77" width="3.50" shape="168.03,119.79 168.82,117.04 168.96,115.07 168.81,113.05 168.69,110.14"/>
    </edge>
    <edge id=":202_0" function="internal">
        <lane id=":202_0_0" index="0" disallow="pedestrian tram rail_urban rail rail_electric rail_fast ship" speed="17.88" length="10.16" width="3.50" shape="138.11,152.46 135.23,151.75 133.16,151.64 131.06,151.82 128.05,151.96"/>
    </edge>
    <edge id=":202_1" function="internal">
        <lane id=":202_1_0" index="0" disallow="pedestrian tram rail_urban rail rail_electric rail_fast ship" speed="17.88" length="10.14" width="3.50" shape="128.03,148.46 131.03,148.49 133.12,148.46 135.15,148.11 138.00,147.22"/>
    </edge>
    <edge id=":210_0" function="internal">
        <lane id=":210_0_0" index="0" disallow="pedestrian tram rail_urban rail rail_electric rail_fast ship" speed="17.88" length="10.81" width="3.50" shape="214.77,156.57 211.66,156.38 209.34,156.31 207.06,156.54 204.05,157.23"/>
    </edge>
    <edge id=":210_1" function="internal">
        <lane id=":210_1_0" index="0" disallow="pedestrian tram rail_urban rail rail_electric rail_fast ship" speed="17.88" length="10.83" width="3.50" shape="204.26,151.97 207.21,152.83 209.49,153.07 211.83,153.03 214.95,153.07"/>
    </edge>
    <edge id=":28_0" function="internal">
        <lane id=":28_0_0" index="0" disallow="pedestrian tram rail_urban rail rail_electric rail_fast ship" speed="17.88" length="33.75" width="3.50" shape="142.17,145.51 147.61,141.64 155.38,134.96 162.71,127.85 166.85,122.69"/>
    </edge>
    <edge id=":28_1" function="internal">
        <lane id=":28_1_0" index="0" disallow="pedestrian tram rail_urban rail rail_electric rail_fast ship" speed="17.88" length="31.32" width="3.50" shape="142.17,145.51 147.02,142.45 154.07,137.90 162.15,133.81 170.11,132.13"/>
    </edge>
    <edge id=":28_2" function="internal">
        <lane id=":28_2_0" index="0" disallow="pedestrian tram rail_urban rail rail_electric rail_fast ship" speed="17.88" length="32.90" width="3.50" shape="148.09,149.20 150.85,141.48 156.78,133.89 163.05,127.33 166.85,122.69"/>
    </edge>
    <edge id=":28_3" function="internal">
        <lane id=":28_3_0" index="0" disallow="pedestrian tram rail_urban rail rail_electric rail_fast ship" speed="12.25" length="34.37" width="3.50" shape="148.09,149.20 149.73,140.01 153.96,133.51 160.78,129.72 170.19,128.63"/>
        <lane id=":28_3_1" index="1" disallow="pedestrian tram rail_urban rail rail_electric rail_fast ship" speed="11.24" length="28.76" width="3.50" shape="151.59,149.32 152.96,141.63 156.50,136.21 162.22,133.04 170.11,132.13"/>
    </edge>
    <edge id=":6.end_0" function="internal">
        <lane id=":6.end_0_0" index="0" disallow="pedestrian tram rail_urban rail rail_electric rail_fast ship" speed="3.82" length="5.11" width="3.50" shape="310.43,158.20 311.69,159.15 312.08,160.05 311.59,160.90 310.23,161.70"/>
    </edge>
    <edge id=":63_0" function="internal">
        <lane id=":63_0_0" index="0" disallow="pedestrian tram rail_urban rail rail_electric rail_fast ship" speed="17.88" length="35.50" width="3.50" shape="174.55,122.84 178.56,128.45 185.73,136.53 193.28,144.30 198.44,148.98"/>
    </edge>
    <edge id=":63_1" function="internal">
        <lane id=":63_1_0" index="0" disallow="pedestrian tram rail_urban rail rail_electric rail_fast ship" speed="17.88" length="33.32" width="3.50" shape="174.55,122.84 178.26,127.91 184.39,135.34 189.95,143.77 191.96,151.86"/>
        <lane id=":63_1_1" index="1" disallow="pedestrian tram rail_urban rail rail_electric rail_fast ship" speed="17.88" length="33.32" width="3.50" shape="174.55,122.84 177.72,127.85 182.65,135.16 187.02,143.47 188.48,151.50"/>
    </edge>
    <edge id=":63_3" function="internal">
        <lane id=":63_3_0" index="0" disallow="pedestrian tram rail_urban rail rail_electric rail_fast ship" speed="17.88" length="34.70" width="3.50" shape="170.93,128.65 178.87,131.52 186.91,137.81 193.83,144.60 198.44,148.98"/>
    </edge>
    <edge id=":63_4" function="internal">
        <lane id=":63_4_0" index="0" disallow="pedestrian tram rail_urban rail rail_electric rail_fast ship" speed="12.21" length="36.38" width="3.50" shape="170.93,128.65 181.00,130.32 187.87,134.74 191.52,141.92 191.96,151.86"/>
        <lane id=":63_4_1" index="1" disallow="pedestrian tram rail_urban rail rail_electric rail_fast ship" speed="11.20" length="30.41" width="3.50" shape="170.84,132.15 179.29,133.54 185.04,137.23 188.10,143.22 188.48,151.50"/>
    </edge>
    <edge id=":9.end_0" function="internal">
        <lane id=":9.end_0_0" index="0" disallow="pedestrian tram rail_urban rail rail_electric rail_fast ship" speed="3.82" length="5.11" width="3.50" shape="167.83,0.07 168.65,-1.28 169.51,-1.75 170.40,-1.35 171.33,-0.07"/>
    </edge>

    <edge id="-1" from="166" to="147" priority="1" type="driving" shape="173.54,177.60 172.79,179.45 172.17,181.36 171.89,182.45">
        <lane id="-1_0" index="0" disallow="pedestrian tram rail_urban rail rail_electric rail_fast ship" speed="17.88" length="4.91" width="3.50" shape="175.16,178.26 174.43,180.05 173.85,181.86 173.58,182.90" type="driving"/>
    </edge>
    <edge id="-11" from="28" to="63" priority="1" type="driving" shape="170.07,133.88 170.80,133.90">
        <lane id="-11_0" index="0" disallow="pedestrian tram rail_urban rail rail_electric rail_fast ship" speed="17.88" length="0.73" width="3.50" shape="170.19,128.63 170.93,128.65" type="driving"/>
        <lane id="-11_1" index="1" disallow="pedestrian tram rail_urban rail rail_electric rail_fast ship" speed="17.88" length="0.73" width="3.50" shape="170.11,132.13 170.84,132.15" type="driving"/>
    </edge>
    <edge id="-12" from="202" to="28" priority="1" type="driving" shape="138.58,148.87 140.47,148.20 142.30,147.40 142.94,147.08">
        <lane id="-12_0" index="0" disallow="pedestrian tram rail_urban rail rail_electric rail_fast ship" speed="17.88" length="4.51" width="3.50" shape="138.00,147.22 139.82,146.57 141.58,145.80 142.17,145.51" type="driving"/>
    </edge>
    <edge id="-13" from="63" to="166" priority="1" type="driving" shape="186.74,151.32 186.55,153.15 186.32,154.38">
        <lane id="-13_0" index="0" disallow="pedestrian tram rail_urban rail rail_electric rail_fast ship" speed="17.88" length="3.38" width="3.50" shape="191.96,151.86 191.75,153.91 191.48,155.35" type="driving"/>
        <lane id="-13_1" index="1" disallow="pedestrian tram rail_urban rail rail_electric rail_fast ship" speed="17.88" length="3.38" width="3.50" shape="188.48,151.50 188.28,153.41 188.04,154.70" type="driving"/>
    </edge>
    <edge id="-14" from="166" to="104" priority="1" type="driving" shape="171.24,167.30 169.64,167.34">
        <lane id="-14_0" index="0" disallow="pedestrian tram rail_urban rail rail_electric rail_fast ship" speed="17.88" length="1.60" width="3.50" shape="171.37,172.54 169.77,172.58" type="driving"/>
        <lane id="-14_1" index="1" disallow="pedestrian tram rail_urban rail rail_electric rail_fast ship" speed="17.88" length="1.60" width="3.50" shape="171.28,169.05 169.69,169.09" type="driving"/>
    </edge>
    <edge id="-15" from="20" to="63" priority="1" type="driving" shape="171.64,120.23 172.31,122.11 172.95,123.55">
        <lane id="-15_0" index="0" disallow="pedestrian tram rail_urban rail rail_electric rail_fast ship" speed="17.88" length="3.44" width="3.50" shape="173.28,119.64 173.94,121.46 174.55,122.84" type="driving"/>
    </edge>
    <edge id="-17" from="210" to="166" priority="1" type="driving" shape="203.59,155.54 201.66,156.06 199.77,156.70 197.91,157.46 196.51,158.13">
        <lane id="-17_0" index="0" disallow="pedestrian tram rail_urban rail rail_electric rail_fast ship" speed="17.88" length="7.24" width="3.50" shape="204.05,157.23 202.17,157.74 200.38,158.35 198.61,159.06 197.26,159.71" type="driving"/>
    </edge>
    <edge id="-19" from="147" to="104" priority="1" type="driving" shape="169.95,182.48 169.31,180.59 168.46,178.78 167.94,177.89">
        <lane id="-19_0" index="0" disallow="pedestrian tram rail_urban rail rail_electric rail_fast ship" speed="17.88" length="4.68" width="3.50" shape="168.29,183.04 167.69,181.24 166.90,179.57 166.43,178.76" type="driving"/>
    </edge>
    <edge id="-2" from="104" to="28" priority="1" type="driving" shape="153.29,150.76 153.34,149.37">
        <lane id="-2_0" index="0" disallow="pedestrian tram rail_urban rail rail_electric rail_fast ship" speed="17.88" length="1.38" width="3.50" shape="148.04,150.59 148.09,149.20" type="driving"/>
        <lane id="-2_1" index="1" disallow="pedestrian tram rail_urban rail rail_electric rail_fast ship" speed="17.88" length="1.38" width="3.50" shape="151.54,150.70 151.59,149.32" type="driving"/>
    </edge>
    <edge id="-3" from="210" to="6.end" priority="1" type="driving" shape="214.86,154.82 249.65,156.63 263.99,157.38 264.32,157.39 265.32,157.45 265.65,157.47 294.33,159.03 294.66,159.05 295.66,159.11 295.99,159.13 310.33,159.95">
        <lane id="-3_0" index="0" disallow="pedestrian tram rail_urban rail rail_electric rail_fast ship" speed="17.88" length="95.62" width="3.50" shape="214.95,153.07 249.74,154.88 264.08,155.63 264.42,155.65 265.41,155.70 265.75,155.72 294.43,157.29 294.76,157.31 295.76,157.36 296.09,157.38 310.43,158.20" type="driving"/>
    </edge>
    <edge id="-4" from="202" to="16.end" priority="1" type="driving" shape="128.04,150.21 69.54,150.60 56.78,150.68 54.93,150.70 52.93,150.70 50.93,150.70 49.38,150.69 47.53,150.68 22.01,150.47 20.16,150.45 18.16,150.43 16.16,150.40 14.62,150.36 12.77,150.32 0.00,150.03">
        <lane id="-4_0" index="0" disallow="pedestrian tram rail_urban rail rail_electric rail_fast ship" speed="17.88" length="128.10" width="3.50" shape="128.05,151.96 69.55,152.35 56.79,152.43 54.94,152.45 52.93,152.45 50.92,152.45 49.37,152.44 47.52,152.43 22.00,152.22 20.14,152.20 18.14,152.18 16.13,152.14 14.58,152.11 12.73,152.07 -0.04,151.78" type="driving"/>
    </edge>
    <edge id="-8" from="20" to="9.end" priority="1" type="driving" shape="170.44,110.15 170.72,69.83 170.79,59.61 170.80,57.61 170.81,56.71 170.81,54.71 170.81,52.71 170.79,50.71 170.77,48.71 170.77,48.03 170.74,46.03 170.72,45.14 170.39,24.70 170.35,22.70 170.34,21.81 170.30,19.81 170.24,17.81 170.19,15.81 170.12,13.81 170.10,13.13 170.02,11.13 169.98,10.23 169.58,0.00">
        <lane id="-8_0" index="0" disallow="pedestrian tram rail_urban rail rail_electric rail_fast ship" speed="17.88" length="110.09" width="3.50" shape="168.69,110.14 168.97,69.82 169.04,59.59 169.05,57.60 169.06,56.71 169.06,54.71 169.06,52.72 169.04,50.73 169.02,48.73 169.02,48.05 168.99,46.06 168.97,45.16 168.64,24.73 168.60,22.73 168.59,21.84 168.55,19.85 168.50,17.85 168.44,15.86 168.37,13.87 168.35,13.19 168.27,11.20 168.24,10.30 167.83,0.07" type="driving"/>
    </edge>
    <edge id="0" from="147" to="10.end" priority="1" type="driving" shape="170.56,194.16 170.47,230.60 170.42,249.51 170.42,249.86 170.42,250.90 170.42,251.25 170.21,289.06 170.21,289.41 170.21,290.45 170.20,290.80 170.05,309.71">
        <lane id="0_0" index="0" disallow="pedestrian tram rail_urban rail rail_electric rail_fast ship" speed="17.88" length="115.56" width="3.50" shape="172.31,194.17 172.22,230.60 172.17,249.51 172.17,249.86 172.17,250.91 172.17,251.26 171.96,289.07 171.96,289.42 171.96,290.47 171.95,290.82 171.80,309.72" type="driving"/>
    </edge>
    <edge id="10" from="10.end" to="147" priority="1" type="driving" shape="170.05,309.71 170.20,290.80 170.21,290.45 170.21,289.41 170.21,289.06 170.42,251.25 170.42,250.90 170.42,249.86 170.42,249.51 170.47,230.60 170.56,194.16">
        <lane id="10_0" index="0" disallow="pedestrian tram rail_urban rail rail_electric rail_fast ship" speed="17.88" length="115.54" width="3.50" shape="168.30,309.70 168.45,290.79 168.46,290.44 168.46,289.40 168.46,289.05 168.67,251.24 168.67,250.89 168.67,249.85 168.67,249.50 168.72,230.60 168.81,194.16" type="driving"/>
    </edge>
    <edge id="16" from="16.end" to="202" priority="1" type="driving" shape="0.00,150.03 12.77,150.32 14.62,150.36 16.16,150.40 18.16,150.43 20.16,150.45 22.01,150.47 47.53,150.68 49.38,150.69 50.93,150.70 52.93,150.70 54.93,150.70 56.78,150.68 69.54,150.60 128.04,150.21">
        <lane id="16_0" index="0" disallow="pedestrian tram rail_urban rail rail_electric rail_fast ship" speed="17.88" length="128.00" width="3.50" shape="0.04,148.28 12.81,148.57 14.65,148.62 16.19,148.65 18.19,148.68 20.18,148.70 22.03,148.72 47.55,148.93 49.39,148.94 50.93,148.95 52.93,148.95 54.92,148.95 56.77,148.93 69.53,148.85 128.03,148.46" type="driving"/>
    </edge>
    <edge id="18" from="104" to="202" priority="1" type="driving" shape="142.86,152.42 142.37,152.17 140.54,151.38 138.63,150.79">
        <lane id="18_0" index="0" disallow="pedestrian tram rail_urban rail rail_electric rail_fast ship" speed="17.88" length="4.25" width="3.50" shape="142.06,153.98 141.63,153.76 139.93,153.03 138.11,152.46" type="driving"/>
    </edge>
    <edge id="5" from="28" to="20" priority="1" type="driving" shape="168.42,123.44 169.05,122.14 169.73,120.25">
        <lane id="5_0" index="0" disallow="pedestrian tram rail_urban rail rail_electric rail_fast ship" speed="17.88" length="3.14" width="3.50" shape="166.85,122.69 167.43,121.46 168.03,119.79" type="driving"/>
    </edge>
    <edge id="6" from="6.end" to="210" priority="1" type="driving" shape="310.33,159.95 295.99,159.13 295.66,159.11 294.66,159.05 294.33,159.03 265.65,157.47 265.32,157.45 264.32,157.39 263.99,157.38 249.65,156.63 214.86,154.82">
        <lane id="6_0" index="0" disallow="pedestrian tram rail_urban rail rail_electric rail_fast ship" speed="17.88" length="95.60" width="3.50" shape="310.23,161.70 295.89,160.87 295.56,160.86 294.57,160.80 294.24,160.78 265.56,159.21 265.23,159.19 264.23,159.14 263.90,159.12 249.56,158.38 214.77,156.57" type="driving"/>
    </edge>
    <edge id="7" from="63" to="210" priority="1" type="driving" shape="197.41,150.40 198.27,151.02 199.98,152.06 201.78,152.93 203.66,153.62">
        <lane id="7_0" index="0" disallow="pedestrian tram rail_urban rail rail_electric rail_fast ship" speed="17.88" length="6.58" width="3.50" shape="198.44,148.98 199.24,149.56 200.82,150.52 202.46,151.32 204.26,151.97" type="driving"/>
    </edge>
    <edge id="9" from="9.end" to="20" priority="1" type="driving" shape="169.58,0.00 169.98,10.23 170.02,11.13 170.10,13.13 170.12,13.81 170.19,15.81 170.24,17.81 170.30,19.81 170.34,21.81 170.35,22.70 170.39,24.70 170.72,45.14 170.74,46.03 170.77,48.03 170.77,48.71 170.79,50.71 170.81,52.71 170.81,54.71 170.81,56.71 170.80,57.61 170.79,59.61 170.72,69.83 170.44,110.15">
        <lane id="9_0" index="0" disallow="pedestrian tram rail_urban rail rail_electric rail_fast ship" speed="17.88" length="110.25" width="3.50" shape="171.33,-0.07 171.73,10.17 171.77,11.06 171.84,13.06 171.87,13.75 171.94,15.75 171.99,17.76 172.04,19.77 172.09,21.77 172.10,22.67 172.14,24.67 172.47,45.11 172.49,46.00 172.52,48.00 172.52,48.69 172.54,50.70 172.56,52.71 172.56,54.71 172.56,56.72 172.55,57.62 172.54,59.62 172.47,69.84 172.19,110.16" type="driving"/>
    </edge>

    <junction id="10.end" type="priority" x="170.05" y="309.71" incLanes="0_0" intLanes=":10.end_0_0" shape="170.05,309.71 173.55,309.74 170.05,309.71">
        <request index="0" response="0" foes="0" cont="0"/>
    </junction>
    <junction id="104" type="priority" x="156.30" y="164.27" incLanes="-19_0 -14_0 -14_1" intLanes=":104_0_0 :104_1_0 :104_2_0 :104_3_0 :104_3_1" shape="164.92,179.65 167.94,177.88 167.26,175.95 167.40,175.27 167.88,174.77 168.69,174.46 169.82,174.33 169.64,167.34 164.49,166.99 160.31,165.68 157.10,163.40 154.86,160.16 153.59,155.94 153.29,150.76 146.29,150.53 145.86,152.33 145.38,152.80 144.72,152.96 143.88,152.84 142.86,152.42 141.27,155.54 147.65,158.98 152.19,161.96 155.54,165.00 158.35,168.62 161.26,173.33">
        <request index="0" response="00100" foes="00100" cont="0"/>
        <request index="1" response="11100" foes="11100" cont="0"/>
        <request index="2" response="00000" foes="00011" cont="0"/>
        <request index="3" response="00000" foes="00010" cont="0"/>
        <request index="4" response="00000" foes="00010" cont="0"/>
    </junction>
    <junction id="147" type="priority" x="172.86" y="188.31" incLanes="-1_0 10_0" intLanes=":147_0_0 :147_1_0" shape="175.27,183.34 171.89,182.45 169.92,182.40 166.61,183.52 167.23,185.69 167.48,187.34 167.48,188.73 167.33,190.15 167.15,191.87 167.06,194.15 174.06,194.17 174.06,191.84 174.08,190.11 174.16,188.69 174.35,187.28 174.71,185.59">
        <request index="0" response="00" foes="00" cont="0"/>
        <request index="1" response="00" foes="00" cont="0"/>
    </junction>
    <junction id="16.end" type="priority" x="0.00" y="150.03" incLanes="-4_0" intLanes=":16.end_0_0" shape="0.00,150.03 -0.08,153.53 -0.00,150.03">
        <request index="0" response="0" foes="0" cont="0"/>
    </junction>
    <junction id="166" type="priority" x="184.71" y="167.13" incLanes="-17_0 -13_0 -13_1" intLanes=":166_0_0 :166_1_0 :166_2_0 :166_3_0 :166_3_1" shape="198.01,161.29 196.51,158.13 194.30,158.72 193.61,158.49 193.20,157.91 193.06,156.96 193.20,155.67 186.32,154.38 185.25,158.24 183.60,161.41 181.37,163.91 178.57,165.72 175.19,166.85 171.24,167.30 171.42,174.29 173.21,174.62 173.70,175.08 173.91,175.72 173.86,176.56 173.54,177.60 176.78,178.91 179.29,173.58 181.82,169.98 184.67,167.52 188.12,165.64 192.47,163.76">
        <request index="0" response="00100" foes="00100" cont="0"/>
        <request index="1" response="11100" foes="11100" cont="0"/>
        <request index="2" response="00000" foes="00011" cont="0"/>
        <request index="3" response="00000" foes="00010" cont="0"/>
        <request index="4" response="00000" foes="00010" cont="0"/>
    </junction>
    <junction id="20" type="priority" x="170.68" y="115.20" incLanes="9_0 5_0" intLanes=":20_0_0 :20_1_0" shape="171.64,120.23 174.93,119.05 174.00,115.87 173.86,114.71 173.85,113.52 173.90,112.09 173.94,110.17 166.94,110.13 167.13,113.55 167.23,114.76 167.21,115.95 166.96,117.35 166.39,119.20 169.68,120.38 170.34,119.12 170.67,118.94 171.00,119.07 171.32,119.50">
        <request index="0" response="00" foes="00" cont="0"/>
        <request index="1" response="00" foes="00" cont="0"/>
    </junction>
    <junction id="202" type="priority" x="133.33" y="149.83" incLanes="18_0 16_0" intLanes=":202_0_0 :202_1_0" shape="137.58,154.13 138.63,150.79 137.34,150.17 137.17,149.85 137.32,149.53 137.79,149.20 138.58,148.87 137.41,145.57 135.50,146.20 134.05,146.56 132.82,146.72 131.56,146.76 130.05,146.73 128.02,146.71 128.06,153.71 130.11,153.63 131.64,153.49 132.90,153.38 134.15,153.38 135.63,153.60">
        <request index="0" response="00" foes="00" cont="0"/>
        <request index="1" response="00" foes="00" cont="0"/>
    </junction>
    <junction id="210" type="priority" x="209.22" y="154.58" incLanes="6_0 7_0" intLanes=":210_0_0 :210_1_0" shape="214.68,158.31 215.04,151.32 212.84,151.28 209.83,151.38 208.50,151.31 206.93,150.99 204.86,150.33 203.66,153.62 204.98,154.32 205.14,154.65 204.96,154.96 204.45,155.26 203.59,155.54 204.50,158.92 206.61,158.40 208.20,158.11 209.53,158.02 210.87,158.06 212.50,158.18">
        <request index="0" response="00" foes="00" cont="0"/>
        <request index="1" response="00" foes="00" cont="0"/>
    </junction>
    <junction id="28" type="priority" x="155.64" y="135.41" incLanes="-12_0 -2_0 -2_1" intLanes=":28_0_0 :28_1_0 :28_2_0 :28_3_0 :28_3_1" shape="170.07,133.88 170.24,126.88 168.52,126.46 168.08,125.98 167.91,125.32 168.03,124.47 168.42,123.44 165.27,121.94 162.08,128.15 159.19,132.54 156.15,135.71 152.48,138.27 147.72,140.81 141.39,143.94 142.95,147.08 144.89,146.53 145.55,146.73 146.02,147.22 146.28,148.03 146.34,149.15 153.34,149.37 153.94,144.53 155.42,140.59 157.78,137.56 161.00,135.43 165.10,134.20">
        <request index="0" response="00100" foes="00100" cont="0"/>
        <request index="1" response="11100" foes="11100" cont="0"/>
        <request index="2" response="00000" foes="00011" cont="0"/>
        <request index="3" response="00000" foes="00010" cont="0"/>
        <request index="4" response="00000" foes="00010" cont="0"/>
    </junction>
    <junction id="6.end" type="priority" x="310.33" y="159.95" incLanes="-3_0" intLanes=":6.end_0_0" shape="310.33,159.95 310.53,156.46 310.33,159.95">
        <request index="0" response="0" foes="0" cont="0"/>
    </junction>
    <junction id="63" type="priority" x="185.36" y="136.86" incLanes="-15_0 -11_0 -11_1" intLanes=":63_0_0 :63_1_0 :63_1_1 :63_3_0 :63_4_0 :63_4_1" shape="197.41,150.40 199.46,147.56 193.36,143.27 188.74,139.99 185.16,136.98 182.17,133.50 179.32,128.80 176.15,122.14 172.95,123.55 173.40,125.45 173.21,126.11 172.74,126.57 171.99,126.83 170.97,126.90 170.80,133.90 176.15,134.51 180.43,136.03 183.63,138.47 185.74,141.84 186.78,146.12 186.74,151.32 193.70,152.04 194.30,150.07 194.84,149.62 195.53,149.52 196.39,149.78">
        <request index="0" response="001000" foes="001000" cont="0"/>
        <request index="1" response="111000" foes="111000" cont="0"/>
        <request index="2" response="111000" foes="111000" cont="0"/>
        <request index="3" response="000000" foes="000111" cont="0"/>
        <request index="4" response="000000" foes="000110" cont="0"/>
        <request index="5" response="000000" foes="000110" cont="0"/>
    </junction>
    <junction id="9.end" type="priority" x="169.58" y="0.00" incLanes="-8_0" intLanes=":9.end_0_0" shape="169.58,0.00 166.08,0.14 169.58,0.00">
        <request index="0" response="0" foes="0" cont="0"/>
    </junction>

    <connection from="-1" to="0" fromLane="0" toLane="0" via=":147_0_0" dir="s" state="M"/>
    <connection from="-11" to="7" fromLane="0" toLane="0" via=":63_3_0" dir="s" state="M"/>
    <connection from="-11" to="-13" fromLane="0" toLane="0" via=":63_4_0" dir="l" state="M"/>
    <connection from="-11" to="-13" fromLane="1" toLane="1" via=":63_4_1" dir="l" state="M"/>
    <connection from="-12" to="5" fromLane="0" toLane="0" via=":28_0_0" dir="R" state="m"/>
    <connection from="-12" to="-11" fromLane="0" toLane="1" via=":28_1_0" dir="s" state="m"/>
    <connection from="-13" to="-1" fromLane="0" toLane="0" via=":166_2_0" dir="s" state="M"/>
    <connection from="-13" to="-14" fromLane="0" toLane="0" via=":166_3_0" dir="l" state="M"/>
    <connection from="-13" to="-14" fromLane="1" toLane="1" via=":166_3_1" dir="l" state="M"/>
    <connection from="-14" to="18" fromLane="0" toLane="0" via=":104_2_0" dir="s" state="M"/>
    <connection from="-14" to="-2" fromLane="0" toLane="0" via=":104_3_0" dir="l" state="M"/>
    <connection from="-14" to="-2" fromLane="1" toLane="1" via=":104_3_1" dir="l" state="M"/>
    <connection from="-15" to="7" fromLane="0" toLane="0" via=":63_0_0" dir="R" state="m"/>
    <connection from="-15" to="-13" fromLane="0" toLane="0" via=":63_1_0" dir="s" state="m"/>
    <connection from="-15" to="-13" fromLane="0" toLane="1" via=":63_1_1" dir="s" state="m"/>
    <connection from="-17" to="-1" fromLane="0" toLane="0" via=":166_0_0" dir="R" state="m"/>
    <connection from="-17" to="-14" fromLane="0" toLane="1" via=":166_1_0" dir="s" state="m"/>
    <connection from="-19" to="18" fromLane="0" toLane="0" via=":104_0_0" dir="R" state="m"/>
    <connection from="-19" to="-2" fromLane="0" toLane="0" via=":104_1_0" dir="s" state="m"/>
    <connection from="-2" to="5" fromLane="0" toLane="0" via=":28_2_0" dir="s" state="M"/>
    <connection from="-2" to="-11" fromLane="0" toLane="0" via=":28_3_0" dir="l" state="M"/>
    <connection from="-2" to="-11" fromLane="1" toLane="1" via=":28_3_1" dir="l" state="M"/>
    <connection from="-3" to="6" fromLane="0" toLane="0" via=":6.end_0_0" dir="t" state="M"/>
    <connection from="-4" to="16" fromLane="0" toLane="0" via=":16.end_0_0" dir="t" state="M"/>
    <connection from="-8" to="9" fromLane="0" toLane="0" via=":9.end_0_0" dir="t" state="M"/>
    <connection from="0" to="10" fromLane="0" toLane="0" via=":10.end_0_0" dir="t" state="M"/>
    <connection from="10" to="-19" fromLane="0" toLane="0" via=":147_1_0" dir="s" state="M"/>