<routes>

    <!-- Route distribution -->
    <routeDistribution id="route0">
        <route id="route0" edges="16 -12 5 -8" probability="1.0"/>
    </routeDistribution>
    <routeDistribution id="route1">
        <route id="route1" edges="-11 -13 -1 0" probability="1.0"/>
    </routeDistribution>
    <routeDistribution id="route2">
        <route id="route2" edges="10 -19 18 -4" probability="1.0"/>
    </routeDistribution>
    <routeDistribution id="route3">
        <route id="route3" edges="6 -17 -14 -2 5 -8" probability="1.0"/>
    </routeDistribution>
    <routeDistribution id="route4">
        <route id="route4" edges="9 -15 7 -3" probability="1.0"/>
    </routeDistribution>

    <!-- Vehicle type distribution -->
    <vType id="vType0" vClass="passenger" guiShape="passenger/sedan" color="1,1,1" speedDev="0.1" probability="1.0"/>

    <vTypeDistribution id="typeDist0">
        <vType id="vType1" vClass="passenger" guiShape="passenger/sedan" color="1,1,0" speedDev="0.1" probability="1.0"/>
    </vTypeDistribution>

    <!-- Traffic Flow -->
    <flow id="flow0" begin="0" type="typeDist0" route="route0" departSpeed="random" departLane="0" probability="0.05"/> 
    <flow id="flow1" begin="0" type="typeDist0" route="route1" departSpeed="random" departLane="0" probability="0.05"/> 
    <flow id="flow2" begin="0" type="typeDist0" route="route2" departSpeed="random" departLane="0" probability="0.05"/> 
    <flow id="flow3" begin="0" type="typeDist0" route="route3" departSpeed="random" departLane="0" probability="0.05"/> 
    <!-- <flow id="flow4" begin="0" type="typeDist0" route="route4" departSpeed="random" departLane="0" probability="0.05"/>  -->

    <!-- Ego car -->
    <route id="routeEgo" edges="9 -15 -13 -1 0"/>
    <!-- <vehicle id="Ego" type="vType0" route="routeEgo" depart="50" departSpeed="random" departLane="0" probability="0.1"/> -->

</routes>
				