<?xml version="1.0" encoding="UTF-8"?>

<!-- generated on 2024-04-20 17:47:57 by Eclipse SUMO netconvert Version 1.19.0
<configuration xmlns:xsi="http://www.w3.org/2001/XMLSchema-instance" xsi:noNamespaceSchemaLocation="http://sumo.dlr.de/xsd/netconvertConfiguration.xsd">

    <input>
        <opendrive-files value="Y_Intersection.xodr"/>
    </input>

    <output>
        <output-file value="Y_Intersection.net.xml"/>
    </output>

    <processing>
        <geometry.remove value="true"/>
        <roundabouts.guess value="true"/>
    </processing>

    <ramp_guessing>
        <ramps.guess value="true"/>
    </ramp_guessing>

    <junctions>
        <no-turnarounds.except-deadend value="true"/>
        <junctions.join value="true"/>
    </junctions>

</configuration>
-->

<net version="1.16" junctionCornerDetail="5" rectangularLaneCut="true" limitTurnSpeed="5.50" xmlns:xsi="http://www.w3.org/2001/XMLSchema-instance" xsi:noNamespaceSchemaLocation="http://sumo.dlr.de/xsd/net_file.xsd">

    <location netOffset="50.64,63.29" convBoundary="0.00,0.00,93.80,146.48" origBoundary="-50.64,-63.29,43.16,83.19" projParameter="!"/>

    <type id="driving" priority="1" speed="13.89" disallow="pedestrian tram rail_urban rail rail_electric rail_fast ship" width="3.65"/>

    <edge id=":20_0" function="internal">
        <lane id=":20_0_0" index="0" disallow="pedestrian tram rail_urban rail rail_electric rail_fast ship" speed="16.56" length="29.46" width="3.50" shape="63.48,57.55 68.73,54.41 73.33,49.55 77.30,42.96 80.63,34.65"/>
    </edge>
    <edge id=":20_1" function="internal">
        <lane id=":20_1_0" index="0" disallow="pedestrian tram rail_urban rail rail_electric rail_fast ship" speed="29.06" length="33.03" width="3.50" shape="68.91,65.53 80.63,34.65"/>
    </edge>
    <edge id=":4.end_0" function="internal">
        <lane id=":4.end_0_0" index="0" disallow="pedestrian tram rail_urban rail rail_electric rail_fast ship" speed="4.33" length="6.57" width="4.50" shape="-0.89,43.80 -1.99,42.10 -2.07,40.84 -1.10,40.03 0.89,39.66"/>
    </edge>
    <edge id=":cluster_29_9_0" function="internal">
        <lane id=":cluster_29_9_0_0" index="0" disallow="pedestrian tram rail_urban rail rail_electric rail_fast ship" speed="15.65" length="23.94" width="4.09" shape="39.32,56.36 45.75,58.58 51.78,59.58 57.40,59.35 62.61,57.91"/>
    </edge>
    <edge id=":cluster_29_9_1" function="internal">
        <lane id=":cluster_29_9_1_0" index="0" disallow="pedestrian tram rail_urban rail rail_electric rail_fast ship" speed="15.60" length="53.14" width="4.50" shape="58.10,103.26 60.50,89.38 57.88,77.62 50.23,68.00 37.57,60.51"/>
    </edge>
    <edge id=":cluster_29_9_2" function="internal">
        <lane id=":cluster_29_9_2_0" index="0" disallow="pedestrian tram rail_urban rail rail_electric rail_fast ship" speed="29.06" length="35.33" width="3.50" shape="58.10,103.26 67.69,69.25"/>
    </edge>

    <edge id="-2" from="cluster_29_9" to="20" priority="1" type="driving" shape="69.76,75.36 69.30,69.95 70.58,66.08">
        <lane id="-2_0" index="0" disallow="pedestrian tram rail_urban rail rail_electric rail_fast ship" speed="29.06" length="3.92" width="3.50" shape="67.69,69.25 68.91,65.53" type="driving"/>
    </edge>
    <edge id="-3" from="20" to="7.end" priority="1" type="driving" shape="82.30,35.19 82.97,33.14 88.02,17.75 88.13,17.42 88.46,16.43 88.56,16.10 93.80,0.00">
        <lane id="-3_0" index="0" disallow="pedestrian tram rail_urban rail rail_electric rail_fast ship" speed="29.06" length="37.02" width="3.50" shape="80.63,34.65 81.31,32.59 86.36,17.21 86.47,16.88 86.79,15.89 86.90,15.56 92.14,-0.54" type="driving"/>
    </edge>
    <edge id="-8" from="cluster_29_9" to="20" priority="1" type="driving|restricted" shape="64.90,63.50 65.77,63.15">
        <lane id="-8_0" index="0" disallow="pedestrian tram rail_urban rail rail_electric rail_fast ship" speed="15.65" length="0.94" width="4.09" shape="62.61,57.91 63.48,57.55" type="driving"/>
        <lane id="-8_1" index="1" disallow="all" speed="15.65" length="0.94" width="4.00" shape="64.15,61.65 65.02,61.30" type="restricted"/>
    </edge>
    <edge id="0" from="0.end" to="cluster_29_9" priority="1" type="driving" shape="48.08,146.48 48.50,144.57 48.93,142.61 49.37,140.66 49.81,138.71 50.26,136.76 50.32,136.49 50.79,134.54 51.26,132.60 51.75,130.66 52.25,128.72 52.76,126.79 53.28,124.86 53.81,122.93 54.36,121.01 54.92,119.09 55.49,117.17 56.07,115.26 56.70,113.26 57.30,111.35 57.92,109.45 58.54,107.55 59.16,105.65 59.77,103.81">
        <lane id="0_0" index="0" disallow="pedestrian tram rail_urban rail rail_electric rail_fast ship" speed="29.06" length="44.45" width="3.50" shape="46.37,146.10 46.79,144.19 47.23,142.23 47.66,140.28 48.10,138.32 48.55,136.37 48.62,136.09 49.08,134.13 49.56,132.18 50.05,130.23 50.55,128.28 51.07,126.34 51.59,124.40 52.13,122.46 52.68,120.53 53.24,118.60 53.82,116.67 54.40,114.74 55.03,112.74 55.63,110.82 56.25,108.91 56.87,107.01 57.50,105.10 58.10,103.26" type="driving"/>
    </edge>
    <edge id="4" from="4.end" to="cluster_29_9" priority="1" type="driving" shape="0.00,41.73 10.12,46.09 10.80,46.38 10.99,46.46 12.82,47.26 13.50,47.56 20.95,50.82 32.52,55.88 34.35,56.68 36.19,57.47 36.51,57.61 38.35,58.39 38.44,58.44">
        <lane id="4_0" index="0" disallow="pedestrian tram rail_urban rail rail_electric rail_fast ship" speed="15.65" length="41.90" width="4.50" shape="0.89,39.66 11.01,44.02 11.69,44.32 11.88,44.40 13.72,45.20 14.40,45.49 21.85,48.76 33.42,53.82 35.24,54.62 37.08,55.41 37.39,55.54 39.32,56.36" type="driving"/>
    </edge>
    <edge id="6" from="cluster_29_9" to="4.end" priority="1" type="driving" shape="38.44,58.44 38.35,58.39 36.51,57.61 36.19,57.47 34.35,56.68 32.52,55.88 20.95,50.82 13.50,47.56 12.82,47.26 10.99,46.46 10.80,46.38 10.12,46.09 0.00,41.73">
        <lane id="6_0" index="0" disallow="pedestrian tram rail_urban rail rail_electric rail_fast ship" speed="15.65" length="41.93" width="4.50" shape="37.57,60.51 37.47,60.47 35.63,59.68 35.30,59.54 33.46,58.75 31.61,57.95 20.05,52.88 12.59,49.62 11.92,49.32 10.09,48.53 9.91,48.45 9.23,48.16 -0.89,43.80" type="driving"/>
    </edge>

    <junction id="0.end" type="dead_end" x="48.08" y="146.48" incLanes="" intLanes="" shape="48.08,146.48 44.66,145.73"/>
    <junction id="20" type="priority" x="73.28" y="50.87" incLanes="-8_0 -8_1 -2_0" intLanes=":20_0_0 :20_1_0" shape="82.30,35.19 78.97,34.10 76.95,39.48 74.65,44.15 72.08,48.10 69.23,51.33 66.11,53.85 62.71,55.66 64.26,59.45 67.06,59.05 67.79,59.69 68.06,60.90 67.88,62.66 67.25,64.98 70.58,66.08">
        <request index="0" response="00" foes="10" cont="0"/>
        <request index="1" response="01" foes="01" cont="0"/>
    </junction>
    <junction id="4.end" type="priority" x="0.00" y="41.73" incLanes="6_0" intLanes=":4.end_0_0" shape="0.00,41.73 -1.78,45.86 -0.00,41.73">
        <request index="0" response="0" foes="0" cont="0"/>
    </junction>
    <junction id="7.end" type="dead_end" x="93.80" y="0.00" incLanes="-3_0" intLanes="" shape="90.47,-1.08 93.80,0.00"/>
    <junction id="cluster_29_9" type="priority" x="58.10" y="76.52" incLanes="4_0 0_0" intLanes=":cluster_29_9_0_0 :cluster_29_9_1_0 :cluster_29_9_2_0" shape="63.39,59.80 61.84,56.02 58.75,56.99 55.45,57.46 51.95,57.42 48.24,56.88 44.32,55.84 40.20,54.29 36.69,62.58 45.27,67.09 51.73,72.48 56.08,78.73 58.32,85.86 58.44,93.85 56.44,102.71 59.77,103.81 69.35,69.80 65.80,70.08">
        <request index="0" response="000" foes="000" cont="0"/>
        <request index="1" response="000" foes="000" cont="0"/>
        <request index="2" response="000" foes="000" cont="0"/>
    </junction>

    <connection from="-2" to="-3" fromLane="0" toLane="0" via=":20_1_0" dir="s" state="m"/>
    <connection from="-8" to="-3" fromLane="0" toLane="0" via=":20_0_0" dir="r" state="M"/>
    <connection from="0" to="6" fromLane="0" toLane="0" via=":cluster_29_9_1_0" dir="r" state="M"/>
    <connection from="0" to="-2" fromLane="0" toLane="0" via=":cluster_29_9_2_0" dir="s" state="M"/>
    <connection from="4" to="-8" fromLane="0" toLane="0" via=":cluster_29_9_0_0" dir="r" state="M"/>
    <connection from="6" to="4" fromLane="0" toLane="0" via=":4.end_0_0" dir="t" state="M"/>

    <connection from=":20_0" to="-3" fromLane="0" toLane="0" dir="r" state="M"/>
    <connection from=":20_1" to="-3" fromLane="0" toLane="0" dir="s" state="M"/>
    <connection from=":4.end_0" to="4" fromLane="0" toLane="0" dir="t" state="M"/>
    <connection from=":cluster_29_9_0" to="-8" fromLane="0" toLane="0" dir="r" state="M"/>
    <connection from=":cluster_29_9_1" to="6" fromLane="0" toLane="0" dir="r" state="M"/>
    <connection from=":cluster_29_9_2" to="-2" fromLane="0" toLane="0" dir="s" state="M"/>

</net>
