<routes>

    <!-- Route distribution -->
    <routeDistribution id="route1">
        <route id="route1" edges="0 6" probability="1.0"/>
    </routeDistribution>
    <routeDistribution id="route2">
        <route id="route2" edges="0 -2 -3" probability="1.0"/>
    </routeDistribution>
    <routeDistribution id="route3">
        <route id="route2" edges="4 -8 -3" probability="1.0"/>
    </routeDistribution>


    <!-- Vehicle type distribution -->
    <vType id="vType0" vClass="passenger" guiShape="passenger/sedan" color="1,1,1" speedDev="0.1" probability="1.0"/>

    <vTypeDistribution id="typeDist0">
        <vType id="vType1" vClass="passenger" guiShape="passenger/sedan" color="1,1,0" speedDev="0.1" probability="1.0"/>
    </vTypeDistribution>

    <!-- Traffic Flow -->
    <flow id="flow1" begin="0" type="typeDist0" route="route1" departSpeed="random" departLane="0" probability="0.05"/> 
    <flow id="flow2" begin="0" type="typeDist0" route="route2" departSpeed="random" departLane="0" probability="0.05"/> 
    <!-- <flow id="flow3" begin="0" type="typeDist0" route="route3" departSpeed="random" departLane="0" probability="0.05"/>  -->

    <!-- Ego car -->
    <route id="routeEgo" edges="4 -8 -3"/>
    <!-- <vehicle id="Ego" type="vType0" route="routeEgo" depart="50" departSpeed="random" departLane="0" probability="0.1"/> -->

</routes>
				